68
Energy = -1946.365770412
C     4.6082575   -0.9097496   -2.8032889 
C     4.3326150   -1.9213163   -3.7386015 
C     3.1371358   -1.8216584   -4.4829717 
N     2.2472969   -0.8379344   -4.3263788 
C     2.5247119    0.1264208   -3.4225010 
C     3.7056161    0.1437800   -2.6540514 
H     3.8802152    0.9466888   -1.9336139 
H     5.5113907   -0.9778347   -2.1907892 
C     1.4739809    1.1393576   -3.1943560 
N     1.7571355    2.2195662   -2.4283172 
N     0.7505938    2.9441977   -1.9846691 
C    -0.4955351    2.5323708   -2.3120743 
N    -0.7236359    1.7261867   -3.3758006 
N     0.2860832    1.0186226   -3.8379985 
C    -1.6604986    3.0886768   -1.5728045 
N    -1.3931471    3.9832824   -0.6046820 
N    -2.8702410    2.6100860   -1.9145340 
C    -3.9165420    3.0944735   -1.2261662 
C    -3.7613294    4.0438811   -0.2063251 
C    -2.4513758    4.4583309    0.0723731 
H    -2.2441470    5.1885791    0.8647541 
H    -4.9075569    2.7077673   -1.4952698 
H    -4.6177500    4.4335843    0.3507125 
C     5.2432150   -3.1188517   -3.7902454 
N     5.2438270   -3.8357199   -4.9482133 
O     5.9316430   -3.4132820   -2.8023448 
C     5.9270445   -5.1183063   -5.0664799 
H     4.6930727   -3.5074832   -5.7401961 
C     4.9639678   -6.3073910   -4.8536136 
H     6.3996590   -5.1925528   -6.0599210 
H     6.7088993   -5.1421899   -4.2920602 
N     4.2319671   -6.2118958   -3.5980012 
H     4.2190115   -6.3481651   -5.6648139 
H     5.5514335   -7.2425951   -4.8809063 
C     4.8741429   -6.3324320   -2.4065486 
H     3.2549105   -5.8810477   -3.6115678 
O     6.0343839   -6.7122651   -2.2713759 
O     4.0322419   -5.9735446   -1.3814704 
C     4.4736725   -6.0742917    0.0394884 
C     5.5898550   -5.0501219    0.2786410 
C     3.2080378   -5.7023135    0.8217026 
C     4.8929201   -7.5161547    0.3567877 
H     5.8029261   -7.7975746   -0.1920134 
H     5.0848920   -7.6029844    1.4401911 
H     4.0804492   -8.2151901    0.0919574 
H     2.9330999   -4.6494510    0.6462772 
H     2.3680005   -6.3552396    0.5293793 
H     3.3952533   -5.8320291    1.9010930 
H     5.2405961   -4.0472056   -0.0175004 
H     5.8538110   -5.0379638    1.3505873 
H     6.4820644   -5.3041283   -0.3126338 
H     2.8596092   -2.6031173   -5.2032060 
C     0.8394588   -1.8005028   -1.4332360 
C     2.0230252   -2.6257592   -1.1473708 
N     2.1592911   -3.7657069   -1.9603699 
C     1.3396296   -4.1512025   -3.0003480 
N     0.2555865   -3.3124472   -3.2032789 
C     0.0136270   -2.1899533   -2.4613068 
H    -0.8672727   -1.6188869   -2.7637047 
H    -0.3662332   -3.5568389   -3.9754660 
H     2.9452004   -4.4062623   -1.7452089 
O     1.5484795   -5.1435489   -3.7071595 
O     2.8604912   -2.3896164   -0.2725252 
C     0.6379666   -0.6009867   -0.6153585 
C    -0.4924383    0.1317222   -0.4949781 
H     1.5217932   -0.3165961   -0.0304791 
H    -1.4259873   -0.1179853   -1.0133561 
H    -0.5139581    1.0068098    0.1623675 
