68
Energy = -1946.349658129
C     4.0556503   -1.2731289   -0.7318175 
C     3.7055533   -2.4459837   -1.4204916 
C     2.7504735   -2.3461380   -2.4549563 
N     2.0661342   -1.2332865   -2.7199760 
C     2.3184906   -0.1448077   -1.9616237 
C     3.3465874   -0.0985944   -0.9983062 
H     3.5407959    0.8238489   -0.4448857 
H     4.8363335   -1.3005322    0.0346152 
C     1.3474753    0.9552461   -2.0943362 
N     1.4592886    2.0591178   -1.3180151 
N     0.3791609    2.7952237   -1.1377764 
C    -0.7549620    2.3660400   -1.7342366 
N    -0.7179608    1.5715973   -2.8288610 
N     0.3700244    0.8576398   -3.0297405 
C    -2.0794089    2.8568997   -1.2778101 
N    -2.1278733    4.0182284   -0.6055111 
N    -3.1130009    2.0397735   -1.5586835 
C    -4.3225697    2.4434755   -1.1369340 
C    -4.4983727    3.6496959   -0.4447028 
C    -3.3470939    4.4099908   -0.1959398 
H    -3.4029154    5.3598732    0.3503012 
H    -5.1694868    1.7807794   -1.3525587 
H    -5.4850596    3.9758787   -0.1047789 
C     4.3223581   -3.7679487   -1.0595330 
N     3.4232074   -4.7916219   -1.0082776 
O     5.5328035   -3.8813036   -0.8201541 
C     3.8263150   -6.1701031   -0.7621354 
H     2.4213548   -4.5622943   -1.0733562 
C     3.8699690   -6.9914855   -2.0691853 
H     3.1290971   -6.6377759   -0.0463590 
H     4.8338825   -6.1443671   -0.3173307 
N     4.7021442   -6.3674118   -3.0900546 
H     2.8563366   -7.1078167   -2.4873085 
H     4.2672340   -7.9963452   -1.8480556 
C     6.0658548   -6.3375039   -2.9604066 
H     4.2875477   -5.6359751   -3.6663208 
O     6.6955850   -7.0345693   -2.1663237 
O     6.5900180   -5.4634327   -3.8532062 
C     8.0346132   -5.1370411   -3.8570815 
C     8.4445777   -4.5813931   -2.4860164 
C     8.1195048   -4.0501906   -4.9351059 
C     8.8417356   -6.3791275   -4.2591595 
H     8.7422248   -7.1684744   -3.4986044 
H     9.9075525   -6.1098930   -4.3598851 
H     8.4869684   -6.7672332   -5.2298724 
H     7.5040377   -3.1797313   -4.6503711 
H     7.7568739   -4.4380542   -5.9025910 
H     9.1652252   -3.7207128   -5.0562994 
H     7.7507196   -3.7806916   -2.1815735 
H     9.4687053   -4.1742453   -2.5493370 
H     8.4181198   -5.3707133   -1.7199753 
H     2.5224109   -3.2195364   -3.0799097 
C    -0.8031049   -1.8819532   -1.2825192 
C    -0.2312942   -3.2044083   -1.5493295 
N    -0.7666006   -3.8658294   -2.6603242 
C    -1.7753174   -3.4304165   -3.5102850 
N    -2.2611337   -2.1702408   -3.1681924 
C    -1.8005138   -1.4291271   -2.1198570 
H    -2.2656921   -0.4425142   -2.0093245 
H    -2.9971953   -1.7987229   -3.7710631 
H    -0.3915295   -4.7962465   -2.8613076 
O    -2.1965472   -4.0789071   -4.4606926 
O     0.6628991   -3.7460084   -0.8815034 
C    -0.2513480   -1.1005529   -0.1738581 
C    -0.7959686    0.0007306    0.3910747 
H     0.7034005   -1.4844276    0.2068650 
H    -1.7779662    0.3864399    0.0941345 
H    -0.2757088    0.5333798    1.1936876 
