72
Energy = -1982.802839583
C     4.3034002   -1.7655905   -2.2154290 
C     3.8705874   -3.1009794   -2.2142993 
C     2.4832682   -3.3445326   -2.3296106 
N     1.5660728   -2.3763652   -2.4141256 
C     1.9970154   -1.0962942   -2.3960813 
C     3.3594357   -0.7433607   -2.3149981 
H     3.6528223    0.3087147   -2.3119182 
H     5.3709448   -1.5512980   -2.1110038 
C     0.9571796   -0.0467725   -2.4376810 
N     1.3405247    1.2402209   -2.2380661 
N     0.4059187    2.1429026   -2.0428137 
C    -0.8818650    1.7215962   -2.0609986 
N    -1.2514910    0.5338776   -2.5804886 
N    -0.3097766   -0.3767877   -2.7766877 
C    -1.9405741    2.6464498   -1.5715634 
N    -1.5528466    3.8860763   -1.2210191 
N    -3.1842252    2.1398823   -1.4877096 
C    -4.1297054    2.9620394   -1.0040244 
C    -3.8425453    4.2753800   -0.6069268 
C    -2.5114229    4.6946747   -0.7416400 
H    -2.2049330    5.7081015   -0.4529018 
H    -5.1464009    2.5560767   -0.9278504 
H    -4.6163674    4.9377995   -0.2094645 
C     4.8933319   -4.1783575   -1.9668820 
N     4.5046539   -5.4560946   -2.2035967 
O     6.0213991   -3.8949038   -1.5333962 
C     5.3213357   -6.5931338   -1.7879541 
H     3.5962148   -5.6719232   -2.6325129 
C     4.4790866   -7.8751276   -1.8016945 
H     6.1927647   -6.7252779   -2.4579933 
H     5.7164218   -6.3868302   -0.7767265 
N     3.2605314   -7.7860476   -1.0010499 
H     4.1844308   -8.1143530   -2.8381654 
H     5.0865006   -8.7099858   -1.4194314 
C     2.0931429   -7.3190333   -1.5255824 
H     3.2592924   -8.1186019   -0.0379515 
O     1.9982185   -6.8720625   -2.6795376 
O     1.0944384   -7.4015825   -0.6296117 
C    -0.3178766   -7.0903723   -0.9857563 
C    -0.8181670   -8.1891605   -1.9300908 
C    -0.9993231   -7.1516477    0.3856737 
C    -0.4594223   -5.6885137   -1.5949890 
H    -0.0729438   -5.6525690   -2.6230601 
H    -1.5293187   -5.4166802   -1.6056530 
H     0.0797174   -4.9552954   -0.9770320 
H    -0.8735617   -8.1503436    0.8376815 
H    -0.5409808   -6.4000054    1.0507211 
H    -2.0772536   -6.9416467    0.2836829 
H    -0.6943269   -9.1835781   -1.4676684 
H    -1.8891049   -8.0332539   -2.1466543 
H    -0.2603134   -8.1607657   -2.8805459 
H     2.0903781   -4.3690631   -2.3198547 
C    -0.4366670    1.5228465    1.2088811 
C    -0.1717144    0.2416388    0.8670347 
C     1.1372124   -0.4115448    0.8875935 
C     2.3889825    0.2092280    0.8633787 
N     3.3847184   -0.7414077    0.9064316 
C     2.8237590   -1.9973187    0.9370300 
C     1.4124695   -1.8326931    0.9324793 
C     0.6708100   -3.0484693    0.9947253 
N    -0.6860079   -3.1010265    1.0279385 
N     1.3334828   -4.2298495    0.9916247 
C     2.6786936   -4.2233802    0.9560787 
N     3.4985365   -3.1634717    0.9517929 
H    -1.4552168    1.9188423    1.1471663 
H     0.3435259    2.2074076    1.5621347 
H    -1.0116397   -0.3807657    0.5297394 
H     2.6357014    1.2674244    0.7845247 
H     4.3847814   -0.5525808    0.8645443 
H    -1.2325542   -2.2792219    1.2681509 
H    -1.1205162   -4.0054575    1.2006509 
H     3.1562201   -5.2127012    0.9286229 
