72
Energy = -1982.790151270
C     2.6570729   -0.8254044   -1.0860652 
C     1.7119012   -1.8603640   -0.9767389 
C     0.3474341   -1.5113270   -1.0613756 
N    -0.0964192   -0.2556078   -1.1938728 
C     0.8219489    0.7314006   -1.2931661 
C     2.2130737    0.4840803   -1.2664044 
H     2.9126408    1.3188883   -1.3537813 
H     3.7215553   -1.0618091   -0.9985928 
C     0.3224974    2.1138062   -1.3324655 
N     1.2245394    3.1238224   -1.5634143 
N     0.8360657    4.3413068   -1.3553826 
C    -0.4352664    4.4660504   -0.7903377 
N    -1.4101948    3.5904657   -1.3001084 
N    -1.0108875    2.3755469   -1.5107780 
C    -0.9323451    5.8674235   -0.5483729 
N    -0.1801684    6.8865943   -0.9915534 
N    -2.1042576    5.9630975    0.1044164 
C    -2.5788116    7.2026936    0.3090612 
C    -1.8851800    8.3422175   -0.1200181 
C    -0.6641946    8.1225653   -0.7689889 
H    -0.0517458    8.9617972   -1.1231762 
H    -3.5363000    7.2853117    0.8388648 
H    -2.2725042    9.3500955    0.0529445 
C     2.1887450   -3.2554679   -0.6727618 
N     1.3152162   -4.2580167   -0.9309739 
O     3.3177192   -3.4534901   -0.1927296 
C     1.5844388   -5.6411316   -0.5484718 
H     0.3933710   -4.0730716   -1.3510860 
C     0.3696188   -6.5185427   -0.8714775 
H     2.4665666   -6.0259325   -1.0944241 
H     1.8233216   -5.6863570    0.5306822 
N    -0.8355085   -6.1772085   -0.1147303 
H     0.1375311   -6.4448296   -1.9491820 
H     0.6160346   -7.5678704   -0.6499830 
C    -1.7011902   -5.2080104   -0.5119315 
H    -1.0900305   -6.7388583    0.6966367 
O    -1.4811788   -4.4308180   -1.4548877 
O    -2.8154729   -5.2155958    0.2485424 
C    -3.8896063   -4.2021457    0.0714566 
C    -4.5241747   -4.3648837   -1.3153222 
C    -4.8757664   -4.5818782    1.1815677 
C    -3.3247797   -2.7936033    0.3020196 
H    -2.6996923   -2.4624420   -0.5403236 
H    -4.1574552   -2.0806768    0.4251702 
H    -2.7276671   -2.7846645    1.2299114 
H    -5.2160105   -5.6231176    1.0512298 
H    -4.3980170   -4.4868223    2.1716341 
H    -5.7536251   -3.9154450    1.1465538 
H    -4.8902177   -5.3973690   -1.4487547 
H    -5.3816534   -3.6760758   -1.4063869 
H    -3.7956227   -4.1340775   -2.1070068 
H    -0.4285045   -2.2827899   -0.9741992 
C    -0.1061268    3.8797739    1.1247413 
C     0.1077267    2.4982038    1.2589979 
C     1.3425226    1.8518944    1.6040853 
C     2.6116584    2.4545087    1.6708614 
N     3.5507815    1.5205031    1.9950067 
C     2.9503192    0.2862816    2.1579464 
C     1.5623872    0.4481908    1.9170500 
C     0.7964338   -0.7443777    2.0575369 
N    -0.5627458   -0.7967096    1.9161342 
N     1.4192880   -1.8986554    2.3906377 
C     2.7512138   -1.8934478    2.5734875 
N     3.5884562   -0.8498493    2.4783529 
H    -1.0985542    4.2579904    1.3911875 
H     0.7266691    4.5619515    1.3308741 
H    -0.7883927    1.8690459    1.2413954 
H     2.8995012    3.4911093    1.4985438 
H     4.5488906    1.7005627    2.1048392 
H    -1.0090181   -0.1554795    1.2615234 
H    -0.9482728   -1.7411856    1.9064451 
H     3.2035704   -2.8623727    2.8187750 
