72
Energy = -1982.808612488
C     4.4016960   -2.4148294    0.8675764 
C     4.6526297   -3.0382369   -0.3661881 
C     4.2832030   -2.3501902   -1.5435155 
N     3.6296047   -1.1854792   -1.5439310 
C     3.3005926   -0.6497224   -0.3494542 
C     3.6998847   -1.2106269    0.8831305 
H     3.4309900   -0.7179612    1.8202689 
H     4.7078217   -2.9070237    1.7951331 
C     2.4147773    0.5267721   -0.3736900 
N     1.9452447    0.9934948    0.8089684 
N     0.9188902    1.8141009    0.7878683 
C     0.4065418    2.1185751   -0.4304980 
N     1.1332109    1.9936396   -1.5630001 
N     2.1749198    1.1858551   -1.5395238 
C    -0.9460951    2.7302164   -0.4783269 
N    -1.7806085    2.3599478    0.5155802 
N    -1.2333757    3.5506187   -1.5021975 
C    -2.4709892    4.0751219   -1.5103721 
C    -3.4139564    3.7820026   -0.5153109 
C    -3.0147255    2.8913191    0.4897829 
H    -3.7009885    2.5874722    1.2893153 
H    -2.7154183    4.7496684   -2.3404609 
H    -4.4176477    4.2151604   -0.5303829 
C     5.2461866   -4.4201980   -0.3720039 
N     4.8194601   -5.2019127   -1.4018042 
O     6.0164869   -4.8035233    0.5212782 
C     5.0680300   -6.6394529   -1.4663470 
H     4.0232549   -4.8688777   -1.9608055 
C     3.7522775   -7.4200380   -1.6268143 
H     5.5684961   -6.9309406   -0.5279905 
H     5.7456944   -6.8792395   -2.3068281 
N     3.1333146   -7.2950658   -2.9477278 
H     3.0306210   -7.0955591   -0.8562377 
H     3.9521217   -8.4908874   -1.4708267 
C     2.4012983   -6.2264814   -3.3517465 
H     3.2274577   -8.0677105   -3.6059402 
O     2.2551021   -5.1890773   -2.6779730 
O     1.8750375   -6.4414573   -4.5704206 
C     1.1343062   -5.3821028   -5.3119734 
C    -0.1693757   -5.0653855   -4.5702320 
C     0.8522019   -6.0653786   -6.6541597 
C     2.0379788   -4.1564910   -5.5010937 
H     2.2533802   -3.6633844   -4.5419136 
H     1.5338262   -3.4360551   -6.1675631 
H     2.9899528   -4.4561626   -5.9718497 
H     0.2605461   -6.9839055   -6.5016043 
H     1.7965764   -6.3310528   -7.1588352 
H     0.2823422   -5.3824091   -7.3060511 
H    -0.7665506   -5.9844086   -4.4427488 
H    -0.7595228   -4.3433816   -5.1600549 
H     0.0321782   -4.6282283   -3.5819662 
H     4.5281475   -2.7672076   -2.5294904 
C     0.3811255   -1.3460551   -3.3395163 
C     0.5450641   -2.0831020   -2.2185120 
C     0.0984291   -1.7028046   -0.8811031 
C    -0.7404528   -0.6253595   -0.5679585 
N    -0.9144811   -0.5351346    0.7934869 
C    -0.1800161   -1.5187756    1.4108134 
C     0.4351252   -2.3055990    0.3929993 
C     1.1871559   -3.4215310    0.8754604 
N     1.7853128   -4.3494465    0.0931690 
C     0.7255766   -2.7268192    3.0510670 
N    -0.0600634   -1.6855058    2.7414048 
H     0.7516585   -1.7042236   -4.3045729 
H    -0.1079659   -0.3647129   -3.3318628 
H     1.0816773   -3.0342789   -2.3068375 
H    -1.2794618    0.0430361   -1.2373186 
H    -1.3732393    0.2640970    1.2457132 
H     1.6968388   -4.4200248   -0.9209844 
H     2.2654126   -5.1094222    0.5706409 
H     0.8904959   -2.9092585    4.1224313 
N     1.3319886   -3.5882692    2.2160021 
