72
Energy = -1982.807701613
C     8.4468430   -3.7968107   -2.6777597 
C     7.7530316   -4.8848524   -3.2337518 
C     6.6854015   -4.6005411   -4.1138219 
N     6.2787640   -3.3653185   -4.4107528 
C     6.9331282   -2.3301857   -3.8414248 
C     8.0331018   -2.4976617   -2.9769320 
H     8.5307769   -1.6268927   -2.5442952 
H     9.2784490   -3.9904469   -1.9947838 
C     6.3945217   -0.9900237   -4.1441262 
N     6.8929344    0.0852518   -3.4902784 
N     6.2173775    1.2136468   -3.5482615 
C     5.0601212    1.2007582   -4.2538900 
N     4.8125306    0.2691354   -5.2006732 
N     5.5018714   -0.8520207   -5.1578630 
C     4.1081904    2.3294686   -4.0795208 
N     4.2507406    3.0472346   -2.9497172 
N     3.1790699    2.5084624   -5.0349757 
C     2.3222096    3.5251098   -4.8432181 
C     2.3848139    4.3511642   -3.7122430 
C     3.3840840    4.0582241   -2.7740461 
H     3.4889448    4.6455053   -1.8532314 
H     1.5606240    3.6819308   -5.6175322 
H     1.6824313    5.1759809   -3.5641768 
C     8.1555351   -6.2745317   -2.8159147 
N     7.3087985   -7.2797957   -3.1675176 
O     9.1812290   -6.4743526   -2.1497423 
C     7.3969772   -8.5992221   -2.5461042 
H     6.4053613   -7.0380418   -3.5739178 
C     6.0557284   -9.3276358   -2.6632337 
H     8.1850353   -9.2091111   -3.0225518 
H     7.6867784   -8.4651595   -1.4874151 
N     4.9644098   -8.4732068   -2.2003578 
H     5.8476858   -9.6063650   -3.7103069 
H     6.1144078  -10.2649922   -2.0785950 
C     3.7103268   -8.6117034   -2.7015672 
H     5.1577959   -7.7719246   -1.4532009 
O     3.3637823   -9.4595611   -3.5205210 
O     2.8808663   -7.6425844   -2.1797340 
C     1.4002584   -7.7288920   -2.3512240 
C     0.9011679   -9.0742334   -1.8091128 
C     0.8880415   -6.5747172   -1.4813140 
C     1.0453518   -7.5102499   -3.8269542 
H     1.4295492   -8.3340069   -4.4463397 
H    -0.0516053   -7.4558993   -3.9357050 
H     1.4760485   -6.5589375   -4.1856120 
H     1.2491308   -6.6815066   -0.4446446 
H     1.2177787   -5.5977012   -1.8741937 
H    -0.2145404   -6.5810733   -1.4750344 
H     1.2339978   -9.2109837   -0.7657389 
H    -0.2019639   -9.0836387   -1.8269842 
H     1.2726866   -9.9106701   -2.4193992 
H     6.1294039   -5.4075687   -4.6093620 
C     3.6748756   -0.5916688   -2.0269165 
C     4.6202440   -1.4071169   -1.5006040 
C     4.6168335   -2.8667017   -1.4579378 
C     3.7277627   -3.7303828   -2.1040161 
N     4.0561860   -5.0392173   -1.8293624 
C     5.5420298   -3.7287572   -0.7441640 
C     6.6891130   -3.5992030    0.0966667 
N     7.2411972   -2.4098114    0.4397706 
N     7.3096524   -4.7149552    0.5556898 
C     6.8213799   -5.9202849    0.2218775 
N     5.7484618   -6.1854120   -0.5377866 
H     3.7815441    0.4946272   -1.9474810 
H     2.7665743   -0.9718835   -2.5087704 
H     5.4899022   -0.9195334   -1.0427417 
H     2.8890272   -3.4988828   -2.7601969 
H     3.5464714   -5.8892799   -2.1162010 
H     6.7328108   -1.5393130    0.3206003 
H     8.0007489   -2.4133123    1.1186721 
H     7.3640311   -6.7887044    0.6168468 
C     5.1507395   -5.0669289   -1.0028308 
