72
Energy = -1982.803059286
C     3.1097136   -3.4287654   -0.6490908 
C     2.2137151   -4.4517825   -1.0062942 
C     0.9566811   -4.0770262   -1.5226661 
N     0.5864748   -2.8030345   -1.6992060 
C     1.4595872   -1.8273828   -1.3594189 
C     2.7280667   -2.0956688   -0.8106048 
H     3.3957742   -1.2721078   -0.5463756 
H     4.0982437   -3.6952545   -0.2639847 
C     0.9978848   -0.4420324   -1.5913165 
N     1.5148496    0.5592194   -0.8459695 
N     0.9021369    1.7270436   -0.8730520 
C    -0.2165091    1.8158989   -1.6350506 
N    -0.4544028    0.9578766   -2.6545450 
N     0.1735884   -0.1994046   -2.6436586 
C    -1.1239659    2.9768057   -1.4559519 
N    -0.8403806    3.8156321   -0.4428338 
N    -2.1639740    3.0648024   -2.3063147 
C    -3.0088539    4.0870804   -2.1061097 
C    -2.8229868    5.0164985   -1.0722026 
H    -1.4762320    5.5218754    0.5670046 
H    -3.8613816    4.1647447   -2.7923363 
H    -3.5196671    5.8439077   -0.9115924 
C     2.6823590   -5.8810061   -0.9169945 
N     1.7096146   -6.8345918   -0.9064115 
O     3.8932813   -6.1406959   -0.8643596 
C     1.9989351   -8.2397655   -1.1584033 
H     0.7346049   -6.5443540   -0.9606087 
C     1.7910563   -8.5855747   -2.6500001 
H     1.3440568   -8.8712654   -0.5348775 
H     3.0454884   -8.4158552   -0.8640952 
N     2.5843704   -7.7466929   -3.5336391 
H     0.7336473   -8.4421357   -2.9252743 
H     2.0528107   -9.6445812   -2.8171613 
C     2.0931565   -6.5957513   -4.0867026 
H     3.5975691   -7.8622101   -3.5383099 
O     0.9104882   -6.2517551   -4.0525312 
O     3.1037038   -5.9141657   -4.6837963 
C     2.8524391   -4.7183288   -5.5236900 
C     1.9536800   -5.1041291   -6.7061750 
C     4.2639428   -4.3524943   -5.9967009 
C     2.2505405   -3.5898401   -4.6766511 
H     1.2303347   -3.8386353   -4.3533343 
H     2.2190352   -2.6606977   -5.2713840 
H     2.8739985   -3.4095967   -3.7844352 
H     4.7103459   -5.1888400   -6.5612041 
H     4.9105185   -4.1249751   -5.1319382 
H     4.2229038   -3.4653627   -6.6508210 
H     2.3992012   -5.9444944   -7.2662861 
H     1.8547077   -4.2428178   -7.3889740 
H     0.9520450   -5.3961181   -6.3549409 
H     0.2298596   -4.8292143   -1.8499647 
C    -1.1522980    1.5496824    2.0835615 
C    -2.2723610    1.2561792    1.3882789 
C    -2.3592100    0.3109458    0.2753234 
C    -1.5129671   -0.7810679    0.0442317 
N    -1.9126339   -1.4652523   -1.0829319 
C    -2.9911797   -0.8240161   -1.6407213 
C    -3.3263261    0.2755159   -0.8025817 
C    -4.4457026    1.0442460   -1.2401231 
N    -4.9362042    2.1098544   -0.5602904 
N    -5.0808180    0.7008956   -2.3863035 
C    -4.6330630   -0.3631923   -3.0790793 
N    -3.6099974   -1.1766818   -2.7842620 
H    -1.1751670    2.2632644    2.9138983 
H    -0.1823589    1.1033760    1.8348566 
H    -3.2031882    1.7671280    1.6689062 
H    -0.6932891   -1.1567748    0.6567221 
H    -1.3207686   -2.1854475   -1.5329311 
H    -4.4642873    2.4966807    0.2496628 
H    -5.7015913    2.6424574   -0.9680807 
H    -5.1823411   -0.5902437   -4.0039019 
C    -1.6968445    4.8333600   -0.2585303 
