68
Energy = -1946.336360618
C     0.7379429   -2.2233439    0.8748568 
C    -0.5240747   -2.8396635    0.7984136 
C    -1.5705721   -2.1049009    0.2042728 
N    -1.4295511   -0.8559511   -0.2586084 
C    -0.2178518   -0.2767324   -0.1670818 
C     0.8996732   -0.9234241    0.3912541 
H     1.8642260   -0.4123052    0.4325345 
H     1.5734827   -2.7769823    1.3134599 
C    -0.1303239    1.1305822   -0.6784484 
N     1.1290871    1.7372316   -0.6095591 
N     1.1935808    2.9503176   -1.0503211 
C     0.0436671    3.4704097   -1.6014065 
N    -0.7885973    2.6126436   -2.2790108 
N    -0.8453930    1.3905427   -1.8650387 
C    -0.0185304    4.9229209   -1.8794257 
N     0.9727793    5.6773646   -1.3649882 
N    -1.0905155    5.3663854   -2.5640196 
C    -1.1695451    6.6920298   -2.7476930 
C    -0.1951705    7.5756827   -2.2598662 
C     0.8768561    7.0025432   -1.5666154 
H     1.6788783    7.6239655   -1.1478423 
H    -2.0433103    7.0636015   -3.2985915 
H    -0.2718508    8.6559903   -2.4102058 
C    -0.6575055   -4.2487415    1.3181322 
N    -1.9254690   -4.7099067    1.5152628 
O     0.3515076   -4.9278228    1.5579970 
C    -2.2049029   -6.0898381    1.8957665 
H    -2.7172181   -4.0912141    1.3486406 
C    -2.5826280   -6.9599578    0.6774909 
H    -3.0219813   -6.1058519    2.6366120 
H    -1.2901600   -6.4917021    2.3585855 
N    -1.5671269   -6.9290840   -0.3675011 
H    -3.5321428   -6.6156687    0.2355453 
H    -2.7166061   -8.0019756    1.0131169 
C    -0.3655907   -7.5630484   -0.1881811 
H    -1.5695700   -6.1398839   -1.0129553 
O    -0.1552641   -8.4001953    0.6881592 
O     0.5137470   -7.1549511   -1.1350446 
C     1.9304532   -7.5849121   -1.1066491 
C     2.5715076   -7.1699840    0.2250655 
C     2.5345123   -6.7940490   -2.2729887 
C     2.0154478   -9.0963539   -1.3600643 
H     1.5442909   -9.6534769   -0.5360799 
H     3.0743183   -9.3984395   -1.4387748 
H     1.5080540   -9.3543470   -2.3059961 
H     2.4312063   -5.7100500   -2.0942687 
H     2.0218068   -7.0470019   -3.2169752 
H     3.6057759   -7.0356718   -2.3772434 
H     2.3656191   -6.1054397    0.4231928 
H     3.6625440   -7.3288835    0.1699220 
H     2.1625331   -7.7618635    1.0574804 
H    -2.5718783   -2.5398170    0.0833032 
C    -0.3286847    4.3967887    1.2564573 
C    -0.6612130    5.8299466    1.1768508 
N     0.2384623    6.6714059    1.8503498 
C     1.3864343    6.3158941    2.5395285 
N     1.6103100    4.9340816    2.5557259 
C     0.8042293    4.0239138    1.9543722 
H     1.1285381    2.9841718    2.0452757 
H     2.4453190    4.6243337    3.0568217 
H     0.0309172    7.6729236    1.8209443 
O     2.1362819    7.1131097    3.0868502 
O    -1.6320356    6.3015834    0.5849002 
C    -1.1808999    3.4699942    0.5457549 
C    -1.1987227    2.0737821    0.7167115 
H    -1.9885165    3.9398020   -0.0258790 
H    -0.6676662    1.6455952    1.5739317 
H    -2.1136658    1.5419252    0.4374686 
