68
Energy = -1946.348365877
C     4.1032250   -1.7539766   -0.5921980 
C     3.5211769   -2.9448217   -1.0609867 
C     2.2698853   -2.8536571   -1.7086750 
N     1.6050163   -1.7058162   -1.8763261 
C     2.1627931   -0.5751476   -1.3945577 
C     3.4132852   -0.5500929   -0.7450831 
H     3.8236220    0.3949574   -0.3812173 
H     5.0846149   -1.7924860   -0.1105172 
C     1.3688979    0.6626093   -1.5601702 
N     1.7253727    1.7673338   -0.8626623 
N     0.8445837    2.7450991   -0.7881409 
C    -0.3177591    2.5952172   -1.4618854 
N    -0.4494100    1.7063122   -2.4748387 
N     0.4000911    0.7006962   -2.5087283 
C    -1.4405649    3.5254485   -1.1708361 
N    -1.3714671    4.1877753   -0.0018991 
N    -2.4336537    3.5901134   -2.0759175 
C    -3.4531153    4.4132803   -1.7782599 
C    -3.4933610    5.1478771   -0.5863644 
C    -2.4063080    4.9923422    0.2855567 
H    -2.3680092    5.5252685    1.2438292 
H    -4.2661688    4.4765733   -2.5123943 
H    -4.3336689    5.8041302   -0.3445789 
C     4.2895420   -4.2309266   -0.8974580 
N     3.5556814   -5.3799157   -0.9243120 
O     5.5195028   -4.2118813   -0.7489629 
C     4.1709664   -6.7022146   -0.8997773 
H     2.5389002   -5.3236546   -0.9620971 
C     4.2014102   -7.3438997   -2.3036100 
H     3.6201740   -7.3527753   -0.1995508 
H     5.2018751   -6.5716913   -0.5359123 
N     4.8442709   -6.4866633   -3.2918767 
H     3.1785614   -7.5568500   -2.6555199 
H     4.7513604   -8.2979997   -2.2468284 
C     6.1996097   -6.2814397   -3.2568463 
H     4.2890006   -5.7381916   -3.7056442 
O     6.9849744   -6.9888845   -2.6283964 
O     6.5209537   -5.2233268   -4.0394649 
C     7.9077753   -4.7075552   -4.1083016 
C     8.3790184   -4.3047514   -2.7039169 
C     7.7524283   -3.4754500   -5.0072680 
C     8.8158593   -5.7587009   -4.7607773 
H     8.8881997   -6.6551883   -4.1263342 
H     9.8260284   -5.3367386   -4.9023907 
H     8.4169971   -6.0475384   -5.7488050 
H     7.0647322   -2.7477261   -4.5434785 
H     7.3481302   -3.7655199   -5.9923356 
H     8.7325853   -2.9918546   -5.1562224 
H     7.6290062   -3.6503631   -2.2299110 
H     9.3385299   -3.7645429   -2.7819641 
H     8.5156367   -5.1917143   -2.0675452 
H     1.7873984   -3.7465779   -2.1283194 
C    -2.8025550    0.6347810   -0.5417747 
C    -3.9324489    1.4903884   -0.1564363 
N    -4.9544967    1.5751325   -1.1185970 
C    -4.9671826    1.0416723   -2.3987205 
N    -3.8548108    0.2474680   -2.6662603 
C    -2.8171325    0.0708039   -1.7983735 
H    -1.9901182   -0.5332433   -2.1790121 
H    -3.8087693   -0.1547508   -3.6035741 
H    -5.7497978    2.1724611   -0.8799629 
O    -5.8632272    1.2375020   -3.2129745 
O    -4.0300072    2.1159343    0.9025706 
C    -1.6877165    0.5156737    0.3993558 
C    -0.6653242   -0.3695521    0.3433801 
H    -1.7270999    1.2403726    1.2223006 
H    -0.5903550   -1.1447929   -0.4280031 
H     0.1316552   -0.3470796    1.0940705 
