68
Energy = -1946.344428900
C     1.8536092   -0.9197829   -1.9499165 
C     0.7499669   -1.5060581   -2.5912546 
C    -0.2490110   -0.6421760   -3.0933020 
N    -0.2684784    0.6745794   -2.8748733 
C     0.7431158    1.2078026   -2.1569767 
C     1.8652147    0.4590302   -1.7408988 
H     2.6835147    0.9512880   -1.2095631 
H     2.6496277   -1.5625485   -1.5620224 
C     0.5368239    2.5701010   -1.6462796 
N     1.4997265    3.1080133   -0.8239400 
N     1.1786726    4.1537707   -0.1390303 
C    -0.1661477    4.5549645   -0.2676037 
N    -0.6691192    4.4976855   -1.5796394 
N    -0.3551043    3.4333702   -2.2415816 
C    -0.5091369    5.7861554    0.5344266 
N    -0.0591462    5.7894768    1.8012020 
N    -1.2214516    6.7511897   -0.0650796 
C    -1.4895116    7.8392454    0.6808634 
C    -1.0571563    7.9618487    2.0069404 
C    -0.3348722    6.8820479    2.5321890 
H     0.0266847    6.8889426    3.5682855 
H    -2.0686389    8.6365964    0.1977591 
H    -1.2796955    8.8497299    2.6051716 
C     0.5766980   -2.9953511   -2.4831743 
N    -0.4042729   -3.5503230   -3.2493444 
O     1.2548763   -3.6445591   -1.6709621 
C    -1.0352502   -4.8169340   -2.8964071 
H    -0.9169544   -2.9486139   -3.8921978 
C    -2.1837524   -4.5926519   -1.8897532 
H    -1.4226629   -5.2961756   -3.8102149 
H    -0.2717689   -5.4691080   -2.4458364 
N    -1.7265350   -4.0389613   -0.6180163 
H    -2.9281337   -3.8979032   -2.3119386 
H    -2.6827228   -5.5579193   -1.6971176 
C    -1.0549330   -4.8435136    0.2504685 
H    -1.7131094   -3.0228381   -0.4647820 
O    -0.8912296   -6.0506705    0.0816153 
O    -0.6128077   -4.1333059    1.3342277 
C    -0.1139181   -4.8542430    2.5446173 
C     1.2490876   -5.4758782    2.2174371 
C     0.0176978   -3.7414162    3.5908137 
C    -1.1526243   -5.8855452    3.0096196 
H    -1.2564664   -6.7088968    2.2891143 
H    -0.8317805   -6.2982930    3.9814162 
H    -2.1342622   -5.3995342    3.1477571 
H     0.8164092   -3.0347642    3.3201209 
H    -0.9358555   -3.1971349    3.6963948 
H     0.2780325   -4.1886809    4.5649303 
H     1.9417060   -4.6918635    1.8667301 
H     1.6732537   -5.9365997    3.1266119 
H     1.1444697   -6.2467423    1.4389834 
H    -1.1153502   -1.0356829   -3.6411349 
C    -0.0908434    0.8758148    0.8020875 
C    -0.3362381   -0.5458160    0.4939193 
N     0.6114224   -1.4309098    1.0179068 
C     1.7511139   -1.1188247    1.7374462 
N     1.8722755    0.2459935    2.0220136 
C     0.9988934    1.1905882    1.5945525 
H     1.2412750    2.2170478    1.8817370 
H     2.6854498    0.5161504    2.5794101 
H     0.4289693   -2.4367781    0.8718935 
O     2.5751884   -1.9446591    2.1115223 
O    -1.2926519   -0.9766404   -0.1611525 
C    -0.9633652    1.8750076    0.2229418 
C    -1.1622821    3.1860381    0.7069515 
H    -1.6542228    1.4890833   -0.5350173 
H    -0.7615003    3.4469332    1.6928132 
H    -2.1365119    3.6310413    0.4795027 
