68
Energy = -1946.348020706
C     4.6110235   -1.2102012   -0.7295798 
C     4.1840174   -2.3389052   -1.4488672 
C     3.1893655   -2.1643086   -2.4363588 
N     2.5419907   -1.0131231   -2.6259305 
C     2.8665146    0.0283602   -1.8312958 
C     3.9333829   -0.0012995   -0.9103513 
H     4.1837602    0.8872186   -0.3256285 
H     5.4165203   -1.3006288    0.0054084 
C     1.9223423    1.1590278   -1.8797163 
N     1.9059438    2.0408256   -0.8570008 
N     0.7922014    2.7228085   -0.6569303 
C    -0.2309184    2.4890117   -1.5105364 
N    -0.0258118    1.9765127   -2.7417252 
N     1.0835100    1.2891278   -2.9376403 
C    -1.6034500    2.8642810   -1.0880872 
N    -1.8374818    2.7425259    0.2323712 
N    -2.4826620    3.2243354   -2.0367180 
C    -3.7226996    3.5152519   -1.6065081 
C    -4.0812503    3.4367223   -0.2529622 
C    -3.0843217    3.0302339    0.6442061 
H    -3.2891880    2.9237009    1.7162990 
H    -4.4518882    3.8168777   -2.3686256 
H    -5.0941037    3.6711538    0.0854253 
C     4.7355018   -3.7016910   -1.1319092 
N     3.7678093   -4.6559784   -0.9941347 
O     5.9463583   -3.9007112   -0.9744507 
C     4.0876407   -6.0596178   -0.7594030 
H     2.7786942   -4.3642513   -1.0330530 
C     4.0042372   -6.8887433   -2.0592538 
H     3.3972335   -6.4715161   -0.0042892 
H     5.1165416   -6.1013195   -0.3680613 
N     4.8369683   -6.3415265   -3.1224888 
H     2.9663669   -6.9259084   -2.4291129 
H     4.3300438   -7.9204104   -1.8449289 
C     6.2029154   -6.4289745   -3.0552759 
H     4.4583265   -5.5847855   -3.6907234 
O     6.8050054   -7.1729613   -2.2829525 
O     6.7596433   -5.6097940   -3.9797832 
C     8.2255840   -5.4094243   -4.0488019 
C     8.7400099   -4.8812253   -2.7023243 
C     8.3572418   -4.3419753   -5.1413424 
C     8.9049128   -6.7195068   -4.4705900 
H     8.7709745   -7.4913137   -3.6974583 
H     9.9845249   -6.5439601   -4.6196816 
H     8.4764239   -7.0831636   -5.4208160 
H     7.8309088   -3.4198747   -4.8408634 
H     7.9224258   -4.7044054   -6.0887244 
H     9.4212354   -4.1042048   -5.3092540 
H     8.1344432   -4.0180215   -2.3809653 
H     9.7932727   -4.5693042   -2.8115697 
H     8.6726862   -5.6580331   -1.9261077 
H     2.8911284   -3.0045553   -3.0759053 
C     0.0425832   -1.3097286   -0.1860419 
C     1.0096431   -2.4087651   -0.0669958 
N     1.9591240   -2.2537184    0.9488480 
C     2.1127246   -1.1850564    1.8243886 
N     1.1434889   -0.2028358    1.6441347 
C     0.1538381   -0.2627501    0.7025308 
H    -0.5203795    0.6014899    0.6952983 
H     1.2025858    0.6031079    2.2687360 
H     2.6369200   -3.0118014    1.0618303 
O     3.0070577   -1.1119859    2.6574366 
O     1.0409255   -3.4168657   -0.7898712 
C    -0.9586934   -1.3852472   -1.2572229 
C    -2.0879289   -0.6545474   -1.3633010 
H    -0.7170123   -2.1225353   -2.0324388 
H    -2.3988082    0.0654062   -0.5964432 
H    -2.7472043   -0.7660288   -2.2303312 
