68
Energy = -1946.348464249
C     4.8022370   -1.0375159   -2.7318333 
C     4.2616951   -2.0696352   -3.5186113 
C     2.9196553   -1.9399540   -3.9384978 
N     2.1560491   -0.8782190   -3.6603488 
C     2.6993126    0.1180260   -2.9295255 
C     4.0160675    0.0757169   -2.4297663 
H     4.4018381    0.9022040   -1.8281478 
H     5.8303708   -1.1253117   -2.3688367 
C     1.8148907    1.2682303   -2.6389604 
N     2.1890990    2.1584156   -1.6894717 
N     1.2674164    2.9889479   -1.2445722 
C     0.0430904    2.9324130   -1.8141885 
N    -0.1595395    2.3579138   -3.0239433 
N     0.7357433    1.4830318   -3.4322512 
C    -1.0864374    3.6400206   -1.1552858 
N    -0.9110599    3.9543968    0.1409648 
N    -2.1856628    3.8653385   -1.8972163 
C    -3.2051786    4.4791682   -1.2733762 
C    -3.1393669    4.8465213    0.0766596 
C    -1.9460436    4.5517938    0.7513690 
H    -1.8196395    4.7985208    1.8129423 
H    -4.1049740    4.6716293   -1.8711560 
H    -3.9788836    5.3325359    0.5808992 
C     5.1213944   -3.2757213   -3.8000123 
N     4.7459595   -4.0570185   -4.8521598 
O     6.1153580   -3.5132441   -3.0994365 
C     5.4140671   -5.3151113   -5.1679048 
H     3.9651578   -3.7674696   -5.4391155 
C     4.6420455   -6.5317963   -4.6127545 
H     5.5240956   -5.4057317   -6.2614695 
H     6.4130174   -5.2783049   -4.7060799 
N     4.4009047   -6.4337816   -3.1786095 
H     3.6648285   -6.6316482   -5.1131640 
H     5.2267714   -7.4448638   -4.8146197 
C     5.4347162   -6.5710564   -2.2886517 
H     3.6093791   -5.8726366   -2.8653169 
O     6.5295582   -7.0508435   -2.5779244 
O     5.0453605   -6.1392583   -1.0650496 
C     5.9985046   -6.0653745    0.0662106 
C     7.1765091   -5.1548874   -0.3074471 
C     5.1452621   -5.4285907    1.1693983 
C     6.4439113   -7.4809045    0.4578173 
H     7.0209584   -7.9440908   -0.3569766 
H     7.0753158   -7.4319335    1.3620081 
H     5.5647565   -8.1104960    0.6802044 
H     4.8002484   -4.4282840    0.8563503 
H     4.2628545   -6.0553924    1.3848102 
H     5.7394143   -5.3255636    2.0930952 
H     6.7986219   -4.1986996   -0.7044952 
H     7.7885968   -4.9630419    0.5909942 
H     7.8051720   -5.6249520   -1.0783256 
H     2.4266456   -2.7417781   -4.5043470 
C    -2.1884234    0.5743764   -1.2598612 
C    -3.3043979    1.1855239   -0.5258195 
N    -4.4427105    1.4487116   -1.3080672 
C    -4.5933979    1.2873102   -2.6772210 
N    -3.4817510    0.7040441   -3.2799727 
C    -2.3341916    0.3820231   -2.6158629 
H    -1.5335102   -0.0200072   -3.2411821 
H    -3.5366287    0.5780534   -4.2916832 
H    -5.2339458    1.8788035   -0.8231247 
O    -5.5982659    1.6167373   -3.2985820 
O    -3.2999699    1.4772773    0.6730219 
C    -0.9587989    0.2941450   -0.5168341 
C     0.0968539   -0.4427189   -0.9351526 
H    -0.9353147    0.7482458    0.4817512 
H     0.1207692   -0.9548945   -1.9041983 
H     0.9783382   -0.5630049   -0.2966057 
