68
Energy = -1946.363743366
C     5.1319507   -0.6711765   -2.4607193 
C     4.8099816   -1.5939497   -3.4705890 
C     3.6933656   -1.3142101   -4.2879822 
N     2.8984115   -0.2551267   -4.1163977 
C     3.1878238    0.5910142   -3.1066958 
C     4.3186463    0.4485351   -2.2773323 
H     4.5161918    1.1749561   -1.4854614 
H     5.9861917   -0.8697202   -1.8066371 
C     2.1527763    1.6027487   -2.8245945 
N     2.1317263    2.1848820   -1.6046788 
N     1.0139453    2.7725857   -1.2240100 
C    -0.0212543    2.7492020   -2.0959534 
N     0.1671222    2.5556078   -3.4203992 
N     1.2821667    1.9637630   -3.7997081 
C    -1.3827768    3.0644593   -1.5898631 
N    -1.5559139    2.9380844   -0.2614272 
N    -2.3159822    3.4028974   -2.4966233 
C    -3.5426678    3.6606033   -2.0131479 
C    -3.8383672    3.5753347   -0.6452673 
C    -2.7892523    3.1960342    0.2036627 
H    -2.9429736    3.0902899    1.2848487 
H    -4.3125888    3.9410979   -2.7429130 
H    -4.8403119    3.7845227   -0.2606213 
C     5.5410363   -2.9100883   -3.5087448 
N     5.4315702   -3.6237230   -4.6611575 
O     6.1587198   -3.3099093   -2.5093765 
C     5.7954644   -5.0327736   -4.7532713 
H     4.9292964   -3.2168724   -5.4485676 
C     4.6106055   -5.9440564   -4.3689329 
H     6.1215051   -5.2505533   -5.7833159 
H     6.6348819   -5.2160867   -4.0645599 
N     4.1875511   -5.7617700   -2.9844263 
H     3.7445912   -5.7376528   -5.0189680 
H     4.9106059   -6.9957136   -4.5158139 
C     4.9861752   -6.2287686   -1.9855768 
H     3.4805997   -5.0458198   -2.7549680 
O     5.9603945   -6.9584514   -2.1609422 
O     4.5396526   -5.7891275   -0.7680204 
C     5.1362956   -6.3167807    0.4933244 
C     6.5729347   -5.7935333    0.6149181 
C     4.2354464   -5.7196666    1.5811094 
C     5.0456932   -7.8491967    0.5142036 
H     5.6918002   -8.2998420   -0.2525018 
H     5.3605117   -8.2120809    1.5077384 
H     4.0033412   -8.1702012    0.3427923 
H     4.3414979   -4.6245209    1.6229189 
H     3.1801320   -5.9797484    1.3924719 
H     4.5296149   -6.1285267    2.5625355 
H     6.5714120   -4.6918014    0.5613414 
H     6.9949833   -6.0989632    1.5883244 
H     7.2010904   -6.1981877   -0.1929462 
H     3.3889006   -2.0067552   -5.0827648 
C     1.7891163   -1.5567407   -1.0342655 
C     2.5742592   -2.7540845   -1.3638761 
N     3.6986150   -2.9651356   -0.5624695 
C     4.1767149   -2.1593494    0.4565454 
N     3.3735837   -1.0480810    0.6990158 
C     2.2377909   -0.7639800   -0.0012989 
H     1.7305798    0.1558955    0.2985732 
H     3.6796591   -0.4277644    1.4502148 
H     4.2428462   -3.8230168   -0.7498274 
O     5.1994881   -2.3946239    1.0940394 
O     2.3093985   -3.5480347   -2.2816183 
C     0.6057713   -1.2442932   -1.8419764 
C    -0.3716035   -0.3590370   -1.5426744 
H     0.5480053   -1.8099807   -2.7797320 
H    -0.3989589    0.2057197   -0.6025868 
H    -1.1991412   -0.1891971   -2.2396253 
