72
Energy = -1982.803263954
C     3.3500779   -3.0567069   -0.7420953 
C     2.6709729   -4.2591693   -1.0033528 
C     1.3653547   -4.1749689   -1.5342282 
N     0.7425386   -3.0199741   -1.7879346 
C     1.4017909   -1.8737237   -1.5207357 
C     2.7078065   -1.8424881   -0.9908276 
H     3.1984309   -0.8855879   -0.7973365 
H     4.3732178   -3.0919509   -0.3564435 
C     0.6687179   -0.6189786   -1.8014283 
N     1.1629163    0.5463229   -1.3229227 
N     0.3561412    1.5913507   -1.3276373 
C    -0.8714129    1.4324640   -1.8671661 
N    -1.1604476    0.4116618   -2.7097778 
N    -0.3843348   -0.6506939   -2.6569532 
C    -1.8990481    2.4801325   -1.6304863 
N    -1.6999111    3.2635862   -0.5552705 
N    -2.9423897    2.5228569   -2.4775168 
C    -3.8835075    3.4420559   -2.2077116 
C    -3.7877742    4.3087728   -1.1101379 
C    -2.6511455    4.1760996   -0.3010943 
H    -2.5057643    4.8102739    0.5817226 
H    -4.7449210    3.4809107   -2.8856525 
H    -4.5648189    5.0450180   -0.8902229 
C     3.4028669   -5.5594021   -0.8017595 
N     2.6257243   -6.6714837   -0.6734750 
O     4.6418491   -5.5854193   -0.7597364 
C     3.1703927   -8.0179186   -0.7782123 
H     1.6133058   -6.5725458   -0.7296251 
C     3.0302260   -8.5626673   -2.2170553 
H     2.6451205   -8.6859303   -0.0749845 
H     4.2318791   -7.9641066   -0.4893130 
N     3.6625150   -7.7024501   -3.2039669 
H     1.9647738   -8.6422652   -2.4873738 
H     3.4776471   -9.5702428   -2.2688115 
C     2.9746935   -6.7252833   -3.8703093 
H     4.6797541   -7.6303673   -3.2082101 
O     1.7497218   -6.5952534   -3.8538909 
O     3.8492404   -5.9471157   -4.5574434 
C     3.3910898   -4.8988166   -5.4996365 
C     2.5628927   -5.5427183   -6.6199290 
C     4.7160105   -4.3468972   -6.0386891 
C     2.6121357   -3.8119813   -4.7475739 
H     1.6509851   -4.1964054   -4.3788950 
H     2.4206644   -2.9634693   -5.4267621 
H     3.2014593   -3.4452705   -3.8899103 
H     5.2948472   -5.1469225   -6.5310636 
H     5.3203225   -3.9293481   -5.2151968 
H     4.5196765   -3.5482636   -6.7737010 
H     3.1416067   -6.3450232   -7.1096150 
H     2.3135398   -4.7800482   -7.3777234 
H     1.6284072   -5.9655746   -6.2201609 
H     0.8139862   -5.0826593   -1.8100371 
C    -1.1817092   -1.1703513    0.4527303 
C    -2.0314441   -0.1188793    0.5490256 
C    -3.3139457    0.0286580   -0.1343633 
C    -3.7281617   -0.6537509   -1.2817412 
N    -4.9561924   -0.1878972   -1.6870367 
C    -5.3741452    0.8100918   -0.8395729 
C    -4.3752994    0.9722342    0.1577851 
C    -4.6711832    1.9640760    1.1393973 
N    -3.8430923    2.2653690    2.1723369 
N    -5.8138692    2.6859397    1.0348759 
C    -6.6509231    2.4297040    0.0114156 
N    -6.5186591    1.5122852   -0.9560950 
H    -0.2254728   -1.1659812    0.9856942 
H    -1.4121555   -2.0606893   -0.1433956 
H    -1.7238511    0.7296651    1.1745428 
H    -3.2115806   -1.4201928   -1.8572635 
H    -5.4603941   -0.4967842   -2.5169273 
H    -3.0886856    1.6391066    2.4367562 
H    -4.1821940    2.9103446    2.8839785 
H    -7.5568654    3.0507477   -0.0275829 
