72
Energy = -1982.806643295
C     3.1077532   -3.0663589   -0.8946447 
C     2.4963682   -4.2528230   -1.3307838 
C     1.2629841   -4.1491317   -2.0112521 
N     0.6394977   -2.9908295   -2.2400955 
C     1.2211588   -1.8608086   -1.7874548 
C     2.4600979   -1.8492934   -1.1139774 
H     2.8921231   -0.9046241   -0.7753346 
H     4.0751764   -3.1119780   -0.3865600 
C     0.4752636   -0.6040693   -2.0125595 
N     1.0692012    0.5736413   -1.7158179 
N     0.3268870    1.6643181   -1.6965054 
C    -0.9967632    1.5035131   -1.9247131 
N    -1.4888875    0.4153475   -2.5628966 
N    -0.7332752   -0.6581498   -2.6327512 
C    -1.9252483    2.6217024   -1.6022542 
N    -1.3914737    3.6838204   -0.9717849 
N    -3.2173580    2.4515482   -1.9350770 
C    -4.0503533    3.4552028   -1.6160694 
C    -3.6048150    4.6172995   -0.9707663 
C    -2.2388326    4.6787261   -0.6620647 
H    -1.8126828    5.5484717   -0.1462090 
H    -5.1070672    3.3240113   -1.8814648 
H    -4.2893935    5.4300209   -0.7130137 
C     3.2166596   -5.5614497   -1.1634258 
N     2.4217122   -6.6641315   -1.0858546 
O     4.4554361   -5.6031571   -1.1173018 
C     2.9438545   -8.0197080   -1.1553288 
H     1.4089914   -6.5403869   -1.0362805 
C     2.8467500   -8.5809263   -2.5904882 
H     2.3797894   -8.6671052   -0.4626941 
H     3.9960419   -7.9859827   -0.8294769 
N     3.5619768   -7.7612518   -3.5553949 
H     1.7927814   -8.6191052   -2.9097780 
H     3.2538499   -9.6067549   -2.6085413 
C     2.9510415   -6.7653186   -4.2669363 
H     4.5791025   -7.7178524   -3.4944752 
O     1.7331281   -6.5900072   -4.3266379 
O     3.8941464   -6.0281252   -4.9076849 
C     3.5329891   -4.9416120   -5.8476712 
C     2.7302554   -5.5216731   -7.0201906 
C     4.9068353   -4.4432863   -6.3108892 
C     2.7711140   -3.8342393   -5.1076893 
H     1.7716282   -4.1761979   -4.8047890 
H     2.6630545   -2.9583747   -5.7704421 
H     3.3288015   -3.5245373   -4.2073497 
H     5.4710910   -5.2605946   -6.7916689 
H     5.4890149   -4.0702587   -5.4509398 
H     4.7835806   -3.6228582   -7.0376768 
H     3.2940816   -6.3397740   -7.5010286 
H     2.5521903   -4.7324232   -7.7709436 
H     1.7598967   -5.9087596   -6.6734709 
H     0.7891950   -5.0449336   -2.4313236 
C    -1.6773155    0.2911565    0.7025585 
C    -0.7395172   -0.6726321    0.8700915 
C    -0.8953179   -2.1042588    0.6277177 
C    -1.8699975   -2.7211452   -0.1592742 
N    -1.6614452   -4.0809103   -0.1832602 
C    -0.5523834   -4.3912868    0.5654478 
C    -0.0397830   -3.1772410    1.0955024 
C     1.1266430   -3.3238964    1.9033886 
N     1.7889920   -2.2808495    2.4640277 
N     1.6440720   -4.5607414    2.1090436 
C     1.0418264   -5.6179393    1.5373504 
N    -0.0451662   -5.6282504    0.7511004 
H    -1.4398499    1.3380410    0.9146302 
H    -2.6987643    0.0670964    0.3734661 
H     0.2515893   -0.3520795    1.2174378 
H    -2.6820798   -2.2780197   -0.7342145 
H    -2.2173109   -4.7538516   -0.7087963 
H     1.3533917   -1.3673589    2.5468375 
H     2.5463529   -2.4916296    3.1118918 
H     1.5065423   -6.5933253    1.7345862 
