72
Energy = -1982.806680824
C     2.9289498   -3.1811904   -0.5545947 
C     2.3298058   -4.3402594   -1.0734434 
C     1.1529978   -4.1893019   -1.8399526 
N     0.5710296   -3.0113154   -2.0777743 
C     1.1382754   -1.9084400   -1.5467262 
C     2.3227476   -1.9443293   -0.7821851 
H     2.7456159   -1.0200958   -0.3813741 
H     3.8544470   -3.2626226    0.0224518 
C     0.4363244   -0.6293926   -1.7881258 
N     1.0266179    0.5250780   -1.4054453 
N     0.3066625    1.6309449   -1.4104696 
C    -0.9966545    1.5070940   -1.7505639 
N    -1.4576969    0.4492061   -2.4590118 
N    -0.7202125   -0.6381695   -2.5025505 
C    -1.9251517    2.6366397   -1.4702967 
N    -1.4244761    3.6644105   -0.7606461 
N    -3.1872523    2.5093716   -1.9177031 
C    -4.0224653    3.5224466   -1.6364637 
C    -3.6088364    4.6516164   -0.9158699 
C    -2.2734202    4.6693323   -0.4901183 
H    -1.8743037    5.5111103    0.0897790 
H    -5.0550304    3.4261299   -1.9953873 
H    -4.2951831    5.4721599   -0.6895110 
C     3.0104038   -5.6690639   -0.8982439 
N     2.1890925   -6.7549030   -0.9031504 
O     4.2427511   -5.7397571   -0.7760593 
C     2.6858643   -8.1200386   -0.9738216 
H     1.1777917   -6.6090258   -0.9052802 
C     2.6777638   -8.6421143   -2.4268514 
H     2.0605177   -8.7714916   -0.3401558 
H     3.7131177   -8.1200751   -0.5746395 
N     3.4819915   -7.8191869   -3.3159352 
H     1.6488749   -8.6427398   -2.8213266 
H     3.0582591   -9.6781608   -2.4434214 
C     2.9512145   -6.7890382   -4.0426654 
H     4.4929047   -7.8066485   -3.1816116 
O     1.7461498   -6.5756762   -4.1833777 
O     3.9580032   -6.0663422   -4.5974192 
C     3.6951763   -4.9386752   -5.5210626 
C     2.9566926   -5.4519883   -6.7646631 
C     5.1121953   -4.4711004   -5.8731963 
C     2.9192771   -3.8318013   -4.7948698 
H     1.8909139   -4.1497816   -4.5737217 
H     2.8851309   -2.9304012   -5.4307973 
H     3.4226163   -3.5728112   -3.8477034 
H     5.6821772   -5.2901058   -6.3441842 
H     5.6457606   -4.1470126   -4.9633089 
H     5.0644683   -3.6227920   -6.5765295 
H     3.5255370   -6.2728610   -7.2347035 
H     2.8571077   -4.6324552   -7.4972346 
H     1.9526764   -5.8161769   -6.4983998 
H     0.6958284   -5.0618986   -2.3226562 
C    -1.9287738    0.2339707    0.7742354 
C    -1.0152471   -0.7426556    0.9926295 
C    -1.1604688   -2.1660417    0.7001205 
C    -2.0754648   -2.7547364   -0.1751337 
N    -1.8739366   -4.1151120   -0.2186183 
C    -0.8271375   -4.4533901    0.6039132 
C    -0.3499630   -3.2575247    1.2038613 
C     0.7504538   -3.4337589    2.0941444 
N     1.3729722   -2.4106617    2.7320563 
N     1.2449710   -4.6791734    2.3044913 
C     0.6833941   -5.7163948    1.6596404 
N    -0.3411140   -5.6981919    0.7935729 
H    -1.7019171    1.2724998    1.0336979 
H    -2.9208063    0.0288185    0.3551977 
H    -0.0538242   -0.4405007    1.4285008 
H    -2.8385350   -2.2906676   -0.7986196 
H    -2.3915270   -4.7696845   -0.8031191 
H     0.9347097   -1.4978864    2.8090837 
H     2.0766371   -2.6446447    3.4305680 
H     1.1279579   -6.6997339    1.8636901 
