72
Energy = -1982.809661156
C     2.6900863   -0.8785193   -1.2990266 
C     1.7655772   -1.9236194   -1.1387132 
C     0.3944871   -1.6205388   -1.2753064 
N    -0.0727518   -0.3933782   -1.5275842 
C     0.8279459    0.5994179   -1.6954941 
C     2.2210768    0.4002036   -1.6046452 
H     2.9038260    1.2436192   -1.7346319 
H     3.7571620   -1.0770492   -1.1645419 
C     0.2851305    1.9596183   -1.8735111 
N     1.1272100    2.9931468   -2.1094978 
N     0.6941129    4.2072988   -1.8347201 
C    -0.5570079    4.3071481   -1.3292543 
N    -1.4884984    3.3692617   -1.6148994 
N    -1.0571556    2.1557298   -1.8936669 
C    -0.9483042    5.5287249   -0.5849569 
N     0.0534458    6.3539202   -0.2291902 
N    -2.2524035    5.6752106   -0.2922258 
C    -2.5814596    6.7643030    0.4208948 
C    -1.6233193    7.6965008    0.8435764 
C    -0.2931541    7.4359097    0.4864990 
H     0.5179477    8.1111846    0.7866119 
H    -3.6436183    6.8934869    0.6648141 
H    -1.8987045    8.5786544    1.4280616 
C     2.2558255   -3.2753028   -0.6973192 
N     1.4504870   -4.3294466   -0.9795847 
O     3.3301648   -3.3914307   -0.0834404 
C     1.7043881   -5.6685252   -0.4551079 
H     0.5668719   -4.1912495   -1.4823042 
C     0.4079009   -6.4885247   -0.4516120 
H     2.4608014   -6.1951588   -1.0685317 
H     2.1187059   -5.5721636    0.5641124 
N    -0.6577774   -5.9020144    0.3551950 
H     0.0335175   -6.5978320   -1.4844332 
H     0.6215254   -7.4955425   -0.0614492 
C    -1.5234871   -4.9803431   -0.1463338 
H    -0.7709958   -6.1903694    1.3258143 
O    -1.4641647   -4.5364758   -1.3019398 
O    -2.4321786   -4.6227173    0.7873196 
C    -3.5596380   -3.7047281    0.4760480 
C    -4.4894066   -4.3898002   -0.5324486 
C    -4.2303050   -3.5480009    1.8450300 
C    -3.0422836   -2.3517257   -0.0336670 
H    -2.6761107   -2.4192034   -1.0675830 
H    -3.8608323   -1.6130563    0.0063328 
H    -2.2199650   -2.0000584    0.6105010 
H    -4.5270836   -4.5330176    2.2429587 
H    -3.5382646   -3.0714730    2.5607621 
H    -5.1299832   -2.9172966    1.7512804 
H    -4.8312230   -5.3627922   -0.1398581 
H    -5.3731596   -3.7532329   -0.7098529 
H    -3.9701155   -4.5483672   -1.4907950 
H    -0.3621831   -2.4016588   -1.1346604 
C     0.3751428   -2.9668050    2.1497817 
C     0.2167652   -1.6245663    2.1420291 
C     1.2638625   -0.6186317    1.9706049 
C     2.6411436   -0.8005593    2.1045011 
N     3.2975377    0.3928294    1.8945316 
C     2.3837228    1.3784542    1.6198841 
C     1.0920951    0.7829488    1.6470844 
C     0.0306447    1.6548654    1.2743842 
N    -1.2711915    1.2480912    1.1538300 
N     0.2978188    2.9580293    1.0261205 
C     1.5742961    3.3941045    1.1016654 
N     2.6674079    2.6723303    1.3654533 
H    -0.4830154   -3.6290340    2.2974976 
H     1.3540178   -3.4366752    2.0007519 
H    -0.7952590   -1.2253533    2.2921473 
H     3.2037797   -1.7042809    2.3335027 
H     4.3054125    0.5314270    1.9538777 
H    -1.4313760    0.2862849    0.8569574 
H    -1.8941337    1.9247604    0.7113104 
H     1.7189927    4.4598442    0.8779924 
