72
Energy = -1982.796650048
C     1.4265828    1.9734000   -0.5773577 
C     1.6842963    1.6156257   -1.9151507 
C     0.5729064    1.4067468   -2.7574780 
N    -0.6965871    1.4315419   -2.3408564 
C    -0.9276908    1.7047808   -1.0354402 
C     0.1059921    2.0240239   -0.1305750 
H    -0.1353166    2.2734715    0.9062580 
H     2.2419284    2.1905353    0.1199682 
C    -2.3134963    1.5537933   -0.5686128 
N    -2.6669916    1.9643993    0.6904171 
N    -3.8253236    1.5967931    1.1400003 
C    -4.5148844    0.6880843    0.3175057 
N    -4.4672491    0.9854393   -1.0513016 
N    -3.3152755    1.3720136   -1.4941469 
C    -5.8451051    0.2285951    0.8529258 
N    -5.9283581    0.1087653    2.1894651 
N    -6.8065831   -0.0643893   -0.0369339 
C    -7.9783167   -0.4864114    0.4710491 
C    -8.1911012   -0.6198506    1.8488645 
C    -7.1066366   -0.3104538    2.6803721 
H    -7.1810928   -0.4092924    3.7709873 
H    -8.7694339   -0.7286614   -0.2503324 
H    -9.1476025   -0.9621431    2.2535356 
C     3.0525778    1.3601972   -2.4851505 
N     4.0281198    1.1428178   -1.5613062 
O     3.2410582    1.3136703   -3.7120318 
C     5.3096792    0.5359765   -1.9152805 
H     3.7335996    0.9628051   -0.5920553 
C     5.5217281   -0.7757497   -1.1374952 
H     5.2883400    0.3323949   -2.9988321 
H     6.1438519    1.2339093   -1.7131837 
N     5.8793914   -0.5896166    0.2732939 
H     4.5969156   -1.3775375   -1.2030758 
H     6.3466748   -1.3403911   -1.5980797 
C     4.9854084   -0.2856749    1.2438655 
H     6.8496134   -0.7206801    0.5570359 
O     3.7849956   -0.0305973    1.0275724 
O     5.5610283   -0.2843055    2.4596307 
C     4.8048424    0.1061039    3.6838062 
C     5.8853973    0.0206194    4.7670966 
C     4.2818523    1.5413105    3.5390547 
C     3.6848295   -0.9106443    3.9387065 
H     4.0973834   -1.9337333    3.9664465 
H     3.2165371   -0.6970592    4.9148684 
H     2.9128415   -0.8542384    3.1567431 
H     3.4979144    1.6026548    2.7694821 
H     3.8596866    1.8696763    4.5042716 
H     5.1074462    2.2227763    3.2707644 
H     6.2946879   -1.0023281    4.8234182 
H     6.7090836    0.7203806    4.5456299 
H     5.4524334    0.2826459    5.7469067 
H     0.7506638    1.1622086   -3.8120276 
C    -3.5147683   -1.0293029    0.4927157 
C    -2.1745317   -0.9533734    0.0620818 
C    -1.6599720   -1.4317671   -1.1875344 
C    -2.4326207   -1.7294006   -2.3260350 
N    -1.6158589   -2.0372414   -3.3690412 
C    -0.2928914   -1.9614553   -2.9701779 
C    -0.2747307   -1.5974928   -1.6014436 
C     1.0307761   -1.4857280   -1.0320861 
N     1.2807353   -1.2038915    0.2685691 
N     2.1125612   -1.6935393   -1.8280954 
C     1.9286431   -2.0071594   -3.1194203 
H    -3.6803775   -1.0520457    1.5744083 
H    -4.2128433   -1.6365089   -0.0940965 
H    -1.4463817   -0.6253964    0.8113657 
H    -3.5141579   -1.7035550   -2.4553187 
H    -1.9251674   -2.2726003   -4.3122236 
H     0.5289517   -0.8945509    0.8759249 
H     2.2358166   -0.9128936    0.5237646 
H     2.8437030   -2.1403203   -3.7119209 
N     0.7658805   -2.1732757   -3.7694330 
