72
Energy = -1982.793011928
C     2.0819296   -1.3379829    0.3253443 
C     0.9028134   -2.0903784    0.4763632 
C    -0.3062286   -1.5040631    0.0472190 
N    -0.3991730   -0.2600172   -0.4299905 
C     0.7325809    0.4748644   -0.5146616 
C     2.0012807   -0.0368418   -0.1687404 
H     2.8900545    0.5909995   -0.2732233 
H     3.0394502   -1.7801383    0.6153821 
C     0.5559968    1.8815816   -0.9042029 
N     1.6379742    2.6835875   -1.1576932 
N     1.4292887    3.9597813   -1.2501281 
C     0.1192342    4.3683488   -0.9389191 
N    -0.8908262    3.5520170   -1.4642849 
N    -0.6719916    2.2810020   -1.3793560 
C    -0.1171019    5.8537472   -1.0178012 
N     0.9032672    6.6287478   -0.6099607 
N    -1.3189386    6.2740644   -1.4424097 
C    -1.4997006    7.6063085   -1.4909378 
C    -0.4971793    8.5110006   -1.1202315 
C     0.7083385    7.9565106   -0.6698880 
H     1.5383888    8.5940159   -0.3393453 
H    -2.4808114    7.9579833   -1.8354190 
H    -0.6520765    9.5925853   -1.1649086 
C     0.9926344   -3.4912076    1.0070379 
N    -0.1571701   -3.9974160    1.5402283 
O     2.0565134   -4.1274480    0.9625658 
C    -0.3180973   -5.4062426    1.8639383 
H    -0.9905594   -3.4109364    1.5614733 
C    -1.0364505   -6.1596273    0.7230138 
H    -0.8942219   -5.5095600    2.7994376 
H     0.6901148   -5.8207065    2.0229411 
N    -0.3517954   -6.0177303   -0.5519349 
H    -2.0560049   -5.7622973    0.5922699 
H    -1.1110648   -7.2298234    0.9822612 
C    -0.6685725   -5.0280202   -1.4422817 
H     0.5605750   -6.4590807   -0.6658446 
O    -1.6656752   -4.3087357   -1.3650997 
O     0.2702455   -4.9858284   -2.4218071 
C     0.1234573   -4.1110700   -3.6089264 
C    -1.1446878   -4.5014885   -4.3803118 
C     1.3847575   -4.4436000   -4.4143955 
C     0.1188419   -2.6369127   -3.1839887 
H    -0.7946198   -2.3898878   -2.6251404 
H     0.1727664   -1.9977019   -4.0821616 
H     0.9934761   -2.4198072   -2.5476257 
H     1.4065089   -5.5165882   -4.6708763 
H     2.2880756   -4.2019691   -3.8285087 
H     1.4007926   -3.8560388   -5.3477670 
H    -1.1236526   -5.5764573   -4.6302731 
H    -1.1953866   -3.9255538   -5.3204508 
H    -2.0446578   -4.2883337   -3.7833442 
H    -1.2386979   -2.0827398    0.0563703 
C    -0.0523136    4.1251040    1.0356732 
C     0.2745735    2.8272687    1.4768863 
C    -0.6255461    1.8115292    1.9423380 
C    -2.0075410    1.7388724    1.6935547 
N    -2.5035639    0.5707071    2.1892990 
C    -1.4884570   -0.1605915    2.7777341 
C    -0.2924626    0.5866288    2.6507351 
C     0.8568169   -0.0243551    3.2363045 
N     2.0913040    0.5285648    3.2354136 
N     0.7330448   -1.2452312    3.8171138 
C    -0.4726613   -1.8349113    3.8429777 
N    -1.6328551   -1.3680141    3.3530634 
H     0.7084036    4.8941308    1.2047561 
H    -1.0885129    4.4675915    1.1367225 
H     1.3433491    2.6253653    1.6070101 
H    -2.6536061    2.4351380    1.1598455 
H    -3.4752370    0.2675408    2.1232900 
H     2.2450078    1.4988299    2.9821266 
H     2.8374532    0.0491237    3.7357003 
H    -0.5106296   -2.8216910    4.3232434 
