72
Energy = -1982.787621154
C     2.0241818   -2.1084159    2.0027389 
C     2.2108181   -2.8351291    0.8116703 
C     2.6958336   -2.1312120   -0.3104851 
N     2.8092412   -0.8033099   -0.3509435 
C     2.4708396   -0.1004321    0.7548243 
C     2.1626700   -0.7199273    1.9846708 
H     1.9571367   -0.1111379    2.8691790 
H     1.6968256   -2.6350300    2.9045538 
C     2.2619646    1.3328009    0.5287155 
N     1.8022587    2.1607510    1.5109058 
N     1.2620713    3.2826695    1.1352927 
C     1.1147314    3.4181911   -0.2660539 
N     2.2812887    3.0463671   -0.9740726 
N     2.7851295    1.9183316   -0.6035702 
C     0.4743020    4.7116261   -0.6932986 
N    -0.5440639    5.1379679    0.0781364 
N     0.9169995    5.2951363   -1.8166746 
C     0.2924185    6.4284335   -2.1863324 
C    -0.7616925    6.9774722   -1.4465790 
C    -1.1530850    6.2735498   -0.3000409 
H    -1.9832964    6.6221467    0.3269075 
H     0.6468779    6.9069052   -3.1084335 
H    -1.2640649    7.8981826   -1.7555436 
C     1.7051074   -4.2443506    0.7346622 
N     1.3722501   -4.6472988   -0.5313465 
O     1.5267355   -4.9431140    1.7434425 
C     0.4767909   -5.7696606   -0.7824469 
H     1.3528051   -3.9143231   -1.2408197 
C    -0.9793495   -5.2983035   -0.9698459 
H     0.5330159   -6.4413605    0.0884047 
H     0.8158138   -6.3176360   -1.6782852 
N    -1.2107187   -4.4940756   -2.1706095 
H    -1.2936910   -4.7164138   -0.0871028 
H    -1.6343651   -6.1810775   -1.0400068 
C    -1.0811841   -3.1402598   -2.2254547 
H    -1.6551484   -4.9419954   -2.9712742 
O    -0.5542154   -2.4500281   -1.3397964 
O    -1.5883852   -2.6649447   -3.3818316 
C    -1.6116024   -1.2085889   -3.6874865 
C    -2.4773517   -0.4833992   -2.6486571 
C    -2.2805554   -1.1776640   -5.0662798 
C    -0.1766184   -0.6691156   -3.7602074 
H     0.3203542   -0.7090046   -2.7794710 
H    -0.2011891    0.3778962   -4.1081468 
H     0.4130082   -1.2594744   -4.4823515 
H    -3.2902547   -1.6192325   -5.0129126 
H    -1.6834353   -1.7456398   -5.7995894 
H    -2.3697430   -0.1347902   -5.4137514 
H    -3.4872686   -0.9268932   -2.6180356 
H    -2.5707731    0.5796830   -2.9288869 
H    -2.0314072   -0.5433170   -1.6458926 
H     2.9810508   -2.6647767   -1.2274505 
C    -0.2079214    2.1190675   -0.9136402 
C    -0.3585490    1.0045441   -0.0458381 
C    -1.0572883    1.0904507    1.1880525 
C    -1.4575078    2.3321908    1.7452987 
N    -1.9592526    2.1353460    2.9844366 
C    -1.9258405    0.7848545    3.3061747 
C    -1.3794034    0.0861030    2.2001826 
C    -1.3629443   -1.3348481    2.3602455 
N    -0.9962429   -2.2268902    1.4192957 
C    -2.1931107   -1.0561492    4.5230432 
N    -2.3455227    0.2781609    4.4744974 
H     0.2044559    1.9156042   -1.9070988 
H    -1.0375836    2.8331822   -0.9226734 
H     0.0544360    0.0390733   -0.3541146 
H    -1.3518302    3.3392919    1.3298126 
H    -2.3008416    2.8680111    3.6074870 
H    -0.7970639   -2.0330606    0.4319701 
H    -1.0245383   -3.2062556    1.6983198 
H    -2.4830688   -1.5456950    5.4631214 
N    -1.7434436   -1.8655600    3.5566706 
