68
Energy = -1946.336798672
C     2.4504030    1.9869724   -0.3867018 
C     2.8402014    0.8260464   -1.0775454 
C     1.8329079   -0.1042252   -1.4075040 
N     0.5364410    0.0811341   -1.1304135 
C     0.1741961    1.2156916   -0.5017266 
C     1.0993224    2.1930665   -0.0948574 
H     0.7542682    3.0908879    0.4231069 
H     3.2139886    2.7138720   -0.0938742 
C    -1.2983762    1.3789532   -0.2632970 
N    -1.6929863    2.4831600    0.5042709 
N    -2.9662745    2.5921176    0.7034919 
C    -3.7799896    1.7115415    0.0322136 
N    -3.3731553    1.2776650   -1.2076544 
N    -2.1023887    1.1303319   -1.3912725 
C    -5.2143977    1.6210764    0.3855334 
N    -5.5779717    2.1313341    1.5780380 
N    -6.0127640    0.9772975   -0.4886531 
C    -7.2990613    0.8389415   -0.1272479 
C    -7.7887390    1.3255229    1.0903659 
C    -6.8655804    1.9783940    1.9202673 
H    -7.1701496    2.3854919    2.8931965 
H    -7.9547772    0.3104906   -0.8313310 
H    -8.8349786    1.1993060    1.3819968 
C     4.3051091    0.6232576   -1.3704748 
N     4.6050287   -0.2878301   -2.3401250 
O     5.1676522    1.2711204   -0.7601575 
C     5.9748248   -0.6660325   -2.6689733 
H     3.8496998   -0.7344684   -2.8574496 
C     6.3985695   -1.9751491   -1.9701016 
H     6.0681643   -0.7764262   -3.7623383 
H     6.6310285    0.1517683   -2.3325567 
N     6.2707195   -1.9000765   -0.5199200 
H     5.7822652   -2.8189279   -2.3217392 
H     7.4506657   -2.1880618   -2.2231918 
C     7.1356646   -1.1278196    0.2101184 
H     5.3504507   -2.0585812   -0.1107440 
O     8.1975969   -0.6873651   -0.2286754 
O     6.6606827   -0.9670247    1.4682450 
C     7.3366211   -0.0722760    2.4360771 
C     7.4342261    1.3452536    1.8544176 
C     6.3798345   -0.1043351    3.6334903 
C     8.7064468   -0.6583683    2.8043839 
H     9.3691232   -0.6730071    1.9255538 
H     9.1716441   -0.0431324    3.5941415 
H     8.5915361   -1.6877005    3.1865510 
H     5.3902464    0.2876928    3.3425268 
H     6.2567486   -1.1374109    4.0015301 
H     6.7806159    0.5170294    4.4521014 
H     6.4502395    1.6581866    1.4684793 
H     7.7563935    2.0431005    2.6467307 
H     8.1592226    1.3804118    1.0278038 
H     2.0799348   -1.0576859   -1.8933271 
C    -3.8153926   -1.3136554    0.3246803 
C    -5.1705557   -1.6492918    0.7937464 
N    -5.8873839   -2.4942783   -0.0689632 
C    -5.4769874   -3.0212186   -1.2828404 
N    -4.1723281   -2.6498982   -1.6300018 
C    -3.3824025   -1.8454483   -0.8763243 
H    -2.3963022   -1.6296063   -1.2972833 
H    -3.8257004   -3.0199236   -2.5172616 
H    -6.8303447   -2.7545731    0.2312064 
O    -6.1686120   -3.7419705   -1.9897980 
O    -5.6770358   -1.2542060    1.8438616 
C    -3.0313854   -0.4001528    1.1229056 
C    -1.6557822   -0.1638508    0.9633576 
H    -3.5411160   -0.0063191    2.0086094 
H    -1.0651640   -0.8578952    0.3555992 
H    -1.1246316    0.2748405    1.8135929 
