72
Energy = -1982.804658035
C     3.7817734   -2.8816683   -2.5797092 
C     3.0416075   -3.8126209   -3.3283641 
C     1.8256154   -3.3819182   -3.8989434 
N     1.3361564   -2.1463957   -3.7416941 
C     2.0460414   -1.2671500   -2.9965311 
C     3.2854746   -1.5878299   -2.4105394 
H     3.8218607   -0.8413403   -1.8199432 
H     4.7171694   -3.1972508   -2.1085203 
C     1.3865577    0.0307616   -2.7464927 
N     1.7318142    0.7429055   -1.6500901 
N     0.9208603    1.7051497   -1.2583260 
C    -0.2149065    1.8796578   -1.9806752 
N    -0.3071753    1.4641613   -3.2652243 
N     0.5204706    0.5227145   -3.6694605 
C    -1.3210878    2.6888673   -1.4125843 
N    -1.1950152    3.0667844   -0.1274127 
N    -2.3626710    2.9426261   -2.2280550 
C    -3.3754815    3.6417375   -1.6957052 
C    -3.3570549    4.0861801   -0.3653245 
C    -2.2194605    3.7658968    0.3880187 
H    -2.1283431    4.0756809    1.4368573 
H    -4.2327240    3.8439298   -2.3499876 
H    -4.1895454    4.6511133    0.0630000 
C     3.4732819   -5.2562691   -3.3131171 
N     2.9410773   -6.0554280   -4.2768390 
O     4.2437177   -5.6655501   -2.4313997 
C     2.9379844   -7.5105195   -4.1859979 
H     2.2983263   -5.6401530   -4.9494785 
C     1.6253951   -8.0327447   -3.5616100 
H     3.0581085   -7.9370190   -5.1962782 
H     3.8017380   -7.8077016   -3.5707793 
N     1.4536116   -7.6503896   -2.1684311 
H     0.7646706   -7.6412177   -4.1292365 
H     1.6091599   -9.1338420   -3.6283074 
C     0.8371362   -6.4973707   -1.7762557 
H     1.9577587   -8.1720472   -1.4524973 
O     0.3109405   -5.6853922   -2.5381889 
O     0.8702275   -6.4079454   -0.4186821 
C     0.5014868   -5.1581958    0.2850144 
C    -0.9774311   -4.8200539    0.0486140 
C     0.7562998   -5.5191737    1.7526078 
C     1.4388055   -4.0344685   -0.1749914 
H     1.2260611   -3.7596280   -1.2182273 
H     1.3059145   -3.1473189    0.4680441 
H     2.4897792   -4.3620613   -0.1098945 
H     0.1276182   -6.3749226    2.0523384 
H     1.8155774   -5.7875142    1.9049781 
H     0.5125096   -4.6589044    2.3985625 
H    -1.6148217   -5.6737024    0.3367769 
H    -1.2569807   -3.9507512    0.6693131 
H    -1.1575274   -4.5761123   -1.0084963 
H     1.1805846   -4.0778002   -4.4458157 
C    -0.6434244   -0.2093623    1.3599181 
C    -1.7887194   -0.2875927    0.6472748 
C    -1.8837294   -0.6396960   -0.7685388 
C    -0.9413618   -1.3739984   -1.4967323 
N    -1.3658810   -1.5479628   -2.7940485 
C    -2.5673551   -0.9032985   -2.9655960 
C    -2.9449006   -0.3486074   -1.7102350 
C    -4.1849268    0.3561093   -1.7145911 
N    -4.7216710    0.9345694   -0.6117832 
N    -4.8892347    0.4560375   -2.8672380 
C    -4.3915413   -0.1159189   -3.9794549 
N    -3.2532504   -0.8091683   -4.1203794 
H    -0.6579534    0.0423782    2.4255103 
H     0.3380302   -0.3779721    0.9009043 
H    -2.7337150   -0.0731866    1.1637240 
H    -0.0299698   -1.8538214   -1.1483015 
H    -0.7425488   -1.9123561   -3.5296375 
H    -4.2067785    1.0126492    0.2586891 
H    -5.5717381    1.4851260   -0.7129040 
H    -5.0017574    0.0033764   -4.8859689 
