72
Energy = -1982.790503460
C     1.1544799   -2.7866871   -2.8288115 
C     0.6336158   -3.6953906   -1.8908516 
C    -0.2611613   -3.1941817   -0.9233078 
N    -0.6375169   -1.9104514   -0.8570541 
C    -0.1467055   -1.0559793   -1.7746805 
C     0.7561514   -1.4484185   -2.7803320 
H     1.1270990   -0.7127197   -3.4977327 
H     1.8676507   -3.1429333   -3.5786790 
C    -0.5884597    0.3708314   -1.6341432 
N    -0.1188345    1.2591769   -2.6092794 
N    -0.5074417    2.4864467   -2.4834628 
C    -1.4009962    2.7564325   -1.4762403 
N    -2.3050153    1.7849894   -1.1317676 
N    -1.9406631    0.5514526   -1.2755177 
C    -1.6530326    4.1640025   -1.1048207 
N    -0.9068579    5.1020732   -1.7234007 
N    -2.5590677    4.3796954   -0.1302830 
C    -2.7325287    5.6547733    0.2502748 
C    -2.0122765    6.7120388   -0.3232653 
C    -1.0954933    6.3699427   -1.3259916 
H    -0.4827457    7.1366152   -1.8175800 
H    -3.4632541    5.8366807    1.0486925 
H    -2.1493922    7.7461008    0.0033463 
C     1.1174803   -5.1225563   -1.9181382 
N     0.3908209   -6.0191385   -1.2044483 
O     2.1355921   -5.4394831   -2.5557482 
C     0.8306734   -7.3955459   -0.9937575 
H    -0.4439731   -5.7233756   -0.6869804 
C     0.1760138   -7.9639746    0.2729081 
H     0.5591214   -8.0352576   -1.8559715 
H     1.9318803   -7.4016861   -0.9134290 
N     0.4776348   -7.2035511    1.4820400 
H    -0.9207678   -7.9843129    0.1478588 
H     0.5182989   -8.9997830    0.4218092 
C    -0.2606374   -6.1277989    1.8674002 
H     1.2715661   -7.4728812    2.0614294 
O    -1.2166348   -5.6798656    1.2164425 
O     0.1934675   -5.6337743    3.0389552 
C    -0.4663991   -4.4887221    3.7205361 
C    -1.8985226   -4.8834807    4.1029573 
C     0.4115358   -4.3087961    4.9641228 
C    -0.4200527   -3.2375948    2.8324348 
H    -1.1172390   -3.3181490    1.9864094 
H    -0.7018797   -2.3571078    3.4352333 
H     0.6007099   -3.0795022    2.4442258 
H     0.4223747   -5.2343556    5.5644188 
H     1.4471353   -4.0639121    4.6723155 
H     0.0159450   -3.4881876    5.5856962 
H    -1.8921086   -5.8052789    4.7098084 
H    -2.3537507   -4.0750283    4.7005495 
H    -2.5102817   -5.0478044    3.2026306 
H    -0.6745603   -3.8499975   -0.1458014 
C     0.4205883    0.8580322    0.0196653 
C     0.2796970    2.2133109    0.3787141 
C     1.2219984    3.2550918    0.0854662 
C     2.2412782    3.1940825   -0.8829189 
N     2.8348530    4.4138114   -1.0032005 
C     2.2444129    5.3131473   -0.1335971 
C     1.2389726    4.6202872    0.5823731 
C     0.5622592    5.3998110    1.5667436 
N    -0.3847821    4.9067111    2.3985155 
N     0.8573726    6.7195892    1.6803928 
C     1.8130105    7.2421747    0.8931142 
N     2.5686225    6.6121570   -0.0203462 
H    -0.1327918    0.1207445    0.6101781 
H     1.4011039    0.5195458   -0.3324425 
H    -0.5648729    2.4681701    1.0277183 
H     2.5466217    2.3632380   -1.5180544 
H     3.5896528    4.6413157   -1.6506351 
H    -0.5434344    3.9096185    2.4986287 
H    -0.7705197    5.5199041    3.1137672 
H     2.0023652    8.3166884    1.0228112 
