72
Energy = -1982.791358595
C     1.8222123   -3.0064884    1.4715802 
C     0.6261588   -3.6980404    1.7336535 
C    -0.5832862   -3.0567609    1.3965228 
N    -0.6461866   -1.8438896    0.8345251 
C     0.5083003   -1.2067783    0.5635876 
C     1.7700794   -1.7411712    0.8833443 
H     2.6766962   -1.1803098    0.6456335 
H     2.7763176   -3.4849939    1.7118800 
C     0.3737270    0.1154016   -0.1302042 
N     1.5654553    0.8024269   -0.3807729 
N     1.4435752    1.9331568   -0.9984495 
C     0.1837179    2.2806905   -1.4177672 
N    -0.6817053    1.2824691   -1.7803767 
N    -0.5576873    0.1376425   -1.1881048 
C    -0.0627552    3.6690556   -1.8586555 
N     0.9561448    4.5423592   -1.7222870 
N    -1.3059495    3.9545439   -2.2943259 
C    -1.5416715    5.2330682   -2.6267467 
C    -0.5579588    6.2268069   -2.5248203 
C     0.6977214    5.8155547   -2.0586526 
H     1.5192811    6.5334450   -1.9383473 
H    -2.5540587    5.4740647   -2.9752510 
H    -0.7632221    7.2687171   -2.7836755 
C     0.7182195   -5.1071717    2.2554947 
N    -0.4410544   -5.6687500    2.7053191 
O     1.8025265   -5.7097145    2.2550406 
C    -0.5768913   -7.1082882    2.8798989 
H    -1.3032576   -5.1301942    2.6403748 
C    -1.1651453   -7.7641035    1.6093635 
H    -1.2296785   -7.3200948    3.7434854 
H     0.4278329   -7.5072244    3.0898031 
N    -0.4037114   -7.4457007    0.4121065 
H    -2.1945270   -7.4070756    1.4436288 
H    -1.1955618   -8.8589811    1.7457681 
C    -0.7316398   -6.3952971   -0.4023128 
H     0.5400480   -7.8207776    0.3188125 
O    -1.7798817   -5.7529490   -0.3269916 
O     0.2639364   -6.1930808   -1.3026945 
C     0.1072986   -5.2610426   -2.4457286 
C    -1.0693185   -5.7179932   -3.3185234 
C     1.4409934   -5.4267355   -3.1832563 
C    -0.0619296   -3.8229118   -1.9414155 
H    -1.0168981   -3.6966726   -1.4131480 
H    -0.0324826   -3.1248342   -2.7955930 
H     0.7604418   -3.5621551   -1.2546305 
H     1.5793658   -6.4742502   -3.5013078 
H     2.2798171   -5.1438012   -2.5243872 
H     1.4594719   -4.7797445   -4.0764120 
H    -0.9318850   -6.7694177   -3.6253519 
H    -1.1179286   -5.0928073   -4.2267385 
H    -2.0200338   -5.6238473   -2.7713934 
H    -1.5503091   -3.5524652    1.5483581 
C    -0.5178511    1.1800445    1.3281613 
C    -0.7284946    2.5263502    0.9789325 
C     0.0992463    3.6323363    1.3702384 
C     1.4180812    3.5439148    1.8517258 
N     1.9485077    4.7928354    1.9724718 
C     1.0178523    5.7393406    1.5845508 
C    -0.1641229    5.0528054    1.2156198 
C    -1.2489356    5.8961761    0.8321912 
N    -2.4796814    5.4394493    0.5030454 
N    -1.0519394    7.2375797    0.7697182 
C     0.1476672    7.7354013    1.1148830 
N     1.2264303    7.0664218    1.5516747 
H    -1.3829945    0.5096759    1.3086380 
H     0.2212095    0.9564950    2.1052818 
H    -1.6602827    2.7602242    0.4527946 
H     2.0175420    2.6621680    2.0755905 
H     2.8968916    5.0036119    2.2834285 
H    -2.7606510    4.4803162    0.6773532 
H    -3.2119715    6.1168327    0.3000030 
H     0.2513124    8.8264272    1.0361962 
