72
Energy = -1982.792433314
C     3.8663643   -1.8050410   -1.5118513 
C     3.1667577   -2.8097278   -0.8210992 
C     1.9014657   -2.4781454   -0.2941104 
N     1.3353021   -1.2741755   -0.4353221 
C     2.0104128   -0.3259300   -1.1140310 
C     3.2851883   -0.5437560   -1.6660152 
H     3.7936871    0.2621426   -2.2000965 
H     4.8619606   -2.0266035   -1.9078678 
C     1.3182621    0.9995922   -1.2303551 
N     2.0470156    2.0365794   -1.8330251 
N     1.4294520    3.1713250   -1.9096630 
C     0.1026326    3.1908219   -1.5557840 
N    -0.6369457    2.0554740   -1.7569081 
N    -0.0276546    0.9190340   -1.6335570 
C    -0.5890243    4.4904902   -1.4094169 
N     0.1957590    5.5734994   -1.2326718 
N    -1.9365274    4.4755385   -1.4245150 
C    -2.5470763    5.6616734   -1.2735697 
C    -1.8332320    6.8556745   -1.1104407 
C    -0.4356042    6.7487488   -1.0887635 
H     0.1967427    7.6339586   -0.9415525 
H    -3.6445479    5.6547922   -1.2768518 
H    -2.3391742    7.8171416   -0.9876849 
C     3.8498507   -4.1323037   -0.5966784 
N     3.0579723   -5.1593358   -0.1734009 
O     5.0685082   -4.2558703   -0.7912647 
C     3.6160838   -6.3788911    0.3942255 
H     2.0683811   -4.9821805   -0.0096437 
C     3.7275741   -6.2739185    1.9322287 
H     2.9798249   -7.2384332    0.1245562 
H     4.6122424   -6.5221969   -0.0533401 
N     4.4926902   -5.1112653    2.3543806 
H     2.7243219   -6.1821333    2.3788336 
H     4.2007993   -7.1899065    2.3264786 
C     3.8939820   -3.9190960    2.6616937 
H     5.4845943   -5.0730002    2.1194154 
O     2.6846068   -3.7672017    2.8385788 
O     4.8404620   -2.9503210    2.7557359 
C     4.5278402   -1.6027024    3.2859340 
C     4.0155393   -1.7284203    4.7270675 
C     5.8951791   -0.9109019    3.2413565 
C     3.5257830   -0.8858074    2.3721073 
H     2.5455027   -1.3826634    2.3943081 
H     3.4083512    0.1575715    2.7113931 
H     3.8955439   -0.8737010    1.3330223 
H     6.6242727   -1.4564321    3.8644686 
H     6.2720469   -0.8767077    2.2047624 
H     5.8074123    0.1213613    3.6199843 
H     4.7429516   -2.2847729    5.3432647 
H     3.8873289   -0.7219984    5.1614262 
H     3.0472483   -2.2519289    4.7523205 
H     1.3355841   -3.1952776    0.3137063 
C     1.2999585    1.5546494    0.7079051 
C     0.3504135    2.5633154    0.9501360 
C    -1.0249796    2.3029407    1.2510047 
C    -1.6595535    1.0508834    1.1203957 
N    -2.9947536    1.1889853    1.3441291 
C    -3.2919157    2.5122066    1.6270554 
C    -2.0798899    3.2395743    1.5930130 
C    -2.2039836    4.6259511    1.8951910 
N    -1.1515790    5.4792221    1.9408114 
N    -3.4361066    5.1460978    2.1165308 
C    -4.5013383    4.3255344    2.0841552 
N    -4.5204947    3.0009008    1.8679706 
H     2.3572022    1.8333384    0.7478177 
H     1.0723491    0.5404054    1.0503320 
H     0.7039679    3.5985258    0.9837184 
H    -1.2351552    0.0878305    0.8351912 
H    -3.6818274    0.4362837    1.2971815 
H    -0.1988598    5.1369091    2.0153495 
H    -1.3236522    6.4347264    2.2482508 
H    -5.4745827    4.8018768    2.2665647 
