72
Energy = -1982.803739562
C     1.0431673   -6.5786431    8.2049858 
C     0.8331769   -7.0542501    6.8997119 
C     0.2637389   -6.1674508    5.9585992 
N    -0.1505601   -4.9342407    6.2612739 
C    -0.0062390   -4.5184266    7.5375938 
C     0.6171403   -5.2912299    8.5364246 
H     0.7411391   -4.8926627    9.5456477 
H     1.5116238   -7.2335465    8.9441314 
C    -0.5771044   -3.1919068    7.8480771 
N    -0.8794537   -2.9046132    9.1342488 
N    -1.5884623   -1.8219633    9.3850972 
C    -1.9989898   -1.0993223    8.3166555 
N    -1.4188680   -1.2085317    7.1000126 
N    -0.6763489   -2.2687561    6.8578844 
C    -3.0434444   -0.0590191    8.5245560 
N    -3.7123809   -0.1173425    9.6904717 
N    -3.2464094    0.8143375    7.5225113 
C    -4.2095813    1.7291595    7.7207742 
C    -4.9652546    1.7728381    8.9007884 
C    -4.6720416    0.8045682    9.8711898 
H    -5.2260486    0.7633313   10.8174343 
H    -4.3834122    2.4475971    6.9097494 
H    -5.7491994    2.5196700    9.0533110 
C     1.2134741   -8.4753701    6.5938006 
N     0.7338689   -9.0030521    5.4403736 
O     1.9252262   -9.1247450    7.3849464 
C     0.9969521  -10.3824222    5.0266824 
H     0.0226013   -8.4909368    4.9220042 
C     0.0485160  -11.4069890    5.6582432 
H     0.8955116  -10.4248131    3.9315353 
H     2.0415713  -10.6218932    5.2884859 
N     0.3234436  -11.5419139    7.0857353 
H    -1.0010083  -11.0926640    5.5016696 
H     0.1851017  -12.3804927    5.1521541 
C    -0.4674598  -12.3134811    7.8748998 
H     0.9462322  -10.8480122    7.5170780 
O    -1.3288576  -13.0859112    7.4507521 
O    -0.1599713  -12.1048898    9.1882505 
C    -0.8651996  -12.8225498   10.2740600 
C    -0.2202246  -12.2270534   11.5313753 
C    -2.3680087  -12.5075375   10.2321407 
C    -0.5794867  -14.3263296   10.1614297 
H     0.5094877  -14.5065749   10.1514956 
H    -1.0125885  -14.8515194   11.0302406 
H    -1.0199877  -14.7365039    9.2397981 
H    -2.5338379  -11.4175282   10.2774371 
H    -2.8252555  -12.9016980    9.3126611 
H    -2.8603150  -12.9687698   11.1057576 
H    -0.3994684  -11.1388282   11.5768470 
H    -0.6519052  -12.6933755   12.4330032 
H     0.8686618  -12.4052799   11.5271300 
H     0.1406654   -6.4629086    4.9084795 
C    -4.1153918   -3.1777975    7.3184267 
C    -3.7319300   -4.2581704    8.0388522 
C    -3.2539215   -5.5360748    7.5151181 
C    -3.4212625   -6.0265081    6.2191605 
N    -2.8849015   -7.2916196    6.1210703 
C    -2.3652472   -7.6673111    7.3380441 
C    -2.5644765   -6.5863696    8.2388749 
C    -2.0134909   -6.7875646    9.5374355 
N    -2.0422771   -5.8385264   10.5198962 
N    -1.4342567   -7.9728505    9.8393068 
C    -1.3539434   -8.9205636    8.8830308 
H    -4.5445671   -2.3033329    7.8169681 
H    -4.0426495   -3.1448395    6.2248956 
H    -3.8186905   -4.1975943    9.1322161 
H    -3.9121870   -5.5701108    5.3601454 
H    -2.9247831   -7.8865903    5.2948345 
H    -2.0893994   -4.8552255   10.2555560 
H    -1.4662388   -6.0321038   11.3395978 
H    -0.8646374   -9.8557224    9.1791858 
N    -1.7765953   -8.8465974    7.6135384 
