72
Energy = -1982.791790546
C     2.0717052   -0.9183712   -0.6388147 
C     1.2543951   -1.3588758   -1.6964696 
C     0.5620001   -0.3825030   -2.4424359 
N     0.6071795    0.9248377   -2.1724364 
C     1.3588595    1.3334082   -1.1247907 
C     2.1190417    0.4427786   -0.3377596 
H     2.7158533    0.8225629    0.4954728 
H     2.6382327   -1.6508961   -0.0565762 
C     1.2626390    2.7642943   -0.7996668 
N     2.0543473    3.3298366    0.1655814 
N     1.7418467    4.5213691    0.5705647 
C     0.5385522    5.0287139    0.0460586 
N     0.3449969    4.7856276   -1.3190785 
N     0.6621312    3.5968028   -1.7151187 
C     0.1626704    6.4013766    0.5382037 
N     0.4226180    6.6456783    1.8347995 
N    -0.4212095    7.2406648   -0.3310699 
C    -0.7484589    8.4559423    0.1447563 
C    -0.4980337    8.8325214    1.4699516 
C     0.0956608    7.8655192    2.2922790 
H     0.3068783    8.0707730    3.3495539 
H    -1.2287559    9.1474840   -0.5594851 
H    -0.7651596    9.8234259    1.8474969 
C     1.2101456   -2.8178815   -2.0331363 
N     0.0826263   -3.2641574   -2.6524181 
O     2.1742687   -3.5622648   -1.7715596 
C    -0.0436963   -4.6403232   -3.1288611 
H    -0.7510599   -2.6730849   -2.6591700 
C    -0.5897203   -5.6110990   -2.0739119 
H    -0.7095285   -4.6450001   -4.0062892 
H     0.9585685   -4.9668108   -3.4534045 
N     0.2560187   -5.5987425   -0.8868489 
H    -1.6187995   -5.3386088   -1.7801345 
H    -0.6387801   -6.6215897   -2.5257517 
C    -0.2475328   -5.8149758    0.3598477 
H     1.1912261   -5.1850945   -0.9715193 
O    -1.4107465   -6.1580522    0.5870262 
O     0.7188424   -5.6084577    1.2887962 
C     0.4498725   -5.7708235    2.7344600 
C     1.7650253   -5.2921716    3.3611741 
C    -0.7171653   -4.8753131    3.1753092 
C     0.1965748   -7.2554040    3.0300898 
H     1.0496411   -7.8669613    2.6879012 
H     0.0735061   -7.4033448    4.1171134 
H    -0.7182577   -7.5959894    2.5197371 
H    -0.5950104   -3.8644556    2.7506380 
H    -1.6787194   -5.2803862    2.8269629 
H    -0.7295901   -4.8135261    4.2778231 
H     1.9417893   -4.2320763    3.1100372 
H     1.7209842   -5.3949764    4.4586060 
H     2.6123246   -5.8895094    2.9828326 
H    -0.0443523   -0.6734258   -3.3104620 
C    -0.9164739    3.9572750    0.9196207 
C    -0.6982146    2.5672333    0.8629995 
C    -1.4275236    1.5817209    0.1173987 
C    -2.2567454    1.7977262   -0.9967719 
N    -2.6826979    0.6010324   -1.4926035 
C    -2.1641351   -0.4346187   -0.7376239 
C    -1.3717318    0.1390831    0.2865700 
C    -0.7793881   -0.8021399    1.1800263 
N     0.0243401   -0.4668886    2.2169365 
N    -0.9972472   -2.1249852    0.9823210 
C    -1.7699824   -2.5181370   -0.0401798 
H    -0.6798553    4.4348972    1.8760331 
H    -1.7735311    4.3819930    0.3843569 
H     0.0253316    2.1779987    1.5877131 
H    -2.5368987    2.7318752   -1.4823727 
H    -3.2870831    0.4824829   -2.3055788 
H     0.0674828    0.4830797    2.5717569 
H     0.3217108   -1.2095000    2.8473670 
H    -1.9195969   -3.6018748   -0.1294953 
N    -2.3862225   -1.7453170   -0.9518581 
