72
Energy = -1982.793011613
C     2.0741847   -1.3389488    0.3347227 
C     0.8947180   -2.0906790    0.4865056 
C    -0.3132553   -1.5061071    0.0520218 
N    -0.4052036   -0.2638570   -0.4299720 
C     0.7267444    0.4706784   -0.5151706 
C     1.9947496   -0.0399705   -0.1651405 
H     2.8838375    0.5872891   -0.2705389 
H     3.0309593   -1.7800481    0.6288002 
C     0.5512717    1.8761969   -0.9095025 
N     1.6338850    2.6757123   -1.1686241 
N     1.4266164    3.9517725   -1.2658537 
C     0.1181362    4.3633283   -0.9527954 
N    -0.8941389    3.5463791   -1.4737297 
N    -0.6768424    2.2754978   -1.3845680 
C    -0.1186498    5.8484433   -1.0342989 
N     0.9133157    6.6260113   -0.6624177 
N    -1.3341295    6.2658239   -1.4215781 
C    -1.5178032    7.5975636   -1.4705290 
C    -0.5049367    8.5048390   -1.1358528 
C     0.7148779    7.9533571   -0.7218702 
H     1.5542444    8.5931519   -0.4205102 
H    -2.5099018    7.9467850   -1.7847225 
H    -0.6623256    9.5860791   -1.1802356 
C     0.9839555   -3.4888928    1.0241083 
N    -0.1685195   -3.9961593    1.5506303 
O     2.0497751   -4.1225549    0.9906197 
C    -0.3283603   -5.4046581    1.8763765 
H    -1.0041619   -3.4126917    1.5610425 
C    -1.0340971   -6.1629401    0.7307693 
H    -0.9126854   -5.5073754    2.8068248 
H     0.6795562   -5.8157664    2.0455933 
N    -0.3396351   -6.0203324   -0.5388014 
H    -2.0541657   -5.7700779    0.5908745 
H    -1.1064456   -7.2329943    0.9912447 
C    -0.6532107   -5.0330197   -1.4330491 
H     0.5761458   -6.4568287   -0.6438274 
O    -1.6544955   -4.3185991   -1.3655714 
O     0.2941698   -4.9871196   -2.4040835 
C     0.1521075   -4.1167389   -3.5950534 
C    -1.1068665   -4.5176496   -4.3760286 
C     1.4223868   -4.4435909   -4.3886169 
C     0.1344108   -2.6413444   -3.1747982 
H    -0.7850770   -2.3986130   -2.6240027 
H     0.1913445   -2.0046501   -4.0745734 
H     1.0025169   -2.4164981   -2.5322400 
H     1.4532051   -5.5171819   -4.6416131 
H     2.3190277   -4.1943567   -3.7957059 
H     1.4427202   -3.8587441   -5.3236117 
H    -1.0763276   -5.5929813   -4.6234272 
H    -1.1538235   -3.9441014   -5.3178164 
H    -2.0132163   -4.3094307   -3.7870116 
H    -1.2459411   -2.0844272    0.0611656 
C    -0.0494949    4.1284685    1.0216455 
C     0.2709560    2.8300951    1.4667564 
C    -0.6348967    1.8204234    1.9340971 
C    -2.0167880    1.7538550    1.6827580 
N    -2.5193855    0.5893825    2.1804247 
C    -1.5089606   -0.1453546    2.7727245 
C    -0.3091750    0.5958507    2.6464630 
C     0.8358727   -0.0190024    3.2362734 
N     2.0726589    0.5286582    3.2378424 
N     0.7051592   -1.2381391    3.8191908 
C    -0.5033536   -1.8221883    3.8435578 
N    -1.6603115   -1.3507402    3.3504363 
H     0.7151646    4.8938334    1.1893160 
H    -1.0838159    4.4764590    1.1228801 
H     1.3385571    2.6235194    1.5990309 
H    -2.6583729    2.4518628    1.1459167 
H    -3.4922457    0.2903944    2.1126468 
H     2.2317007    1.4971868    2.9813247 
H     2.8158821    0.0465319    3.7398656 
H    -0.5469086   -2.8078560    4.3256182 
