72
Energy = -1982.803443511
C     4.2340712   -2.6772825   -1.8109962 
C     3.6761189   -3.7599463   -2.5095860 
C     2.3698616   -3.6102858   -3.0242631 
N     1.6485482   -2.4909140   -2.9015101 
C     2.2093160   -1.4471089   -2.2532445 
C     3.5020299   -1.4966900   -1.6922469 
H     3.9019526   -0.6292434   -1.1642589 
H     5.2311045   -2.7719363   -1.3711547 
C     1.4009476   -0.2103840   -2.1209558 
N     1.9933722    0.8465605   -1.5077759 
N     1.2618659    1.9123044   -1.2669239 
C    -0.0235775    1.9067167   -1.6996021 
N    -0.5572872    0.9355807   -2.4644857 
N     0.1628370   -0.1629393   -2.6628514 
C    -0.8739434    3.0748844   -1.3340681 
N    -0.4251264    3.8440176   -0.3250247 
N    -2.0132326    3.2460513   -2.0292491 
C    -2.7819246    4.2829327   -1.6614301 
C    -2.4277075    5.1388011   -0.6083290 
C    -1.2119563    4.8716721    0.0349776 
H    -0.8587366    5.4979719    0.8638630 
H    -3.7116050    4.4336986   -2.2247756 
H    -3.0647786    5.9753787   -0.3085724 
C     4.4806480   -5.0254504   -2.6226573 
N     4.3598020   -5.7130732   -3.7923097 
O     5.2342807   -5.3772541   -1.7022500 
C     5.1136536   -6.9353714   -4.0446539 
H     3.7586561   -5.3476925   -4.5295948 
C     4.2990764   -8.2098220   -3.7421134 
H     5.4431799   -6.9468058   -5.0966640 
H     6.0056721   -6.9001655   -3.3977407 
N     3.6966609   -8.1708944   -2.4187643 
H     3.4736990   -8.3244774   -4.4622731 
H     4.9649160   -9.0864881   -3.8364658 
C     2.3626923   -7.9070712   -2.2575714 
H     4.2991565   -7.9629016   -1.6213516 
O     1.5295134   -7.9521876   -3.1633262 
O     2.1073456   -7.6182743   -0.9574517 
C     0.7205607   -7.4112271   -0.4759340 
C    -0.0715241   -8.7146554   -0.6434016 
C     0.9331206   -7.0705114    1.0035060 
C     0.0795357   -6.2276360   -1.2119387 
H    -0.0816189   -6.4594606   -2.2745117 
H    -0.8913842   -5.9945687   -0.7405912 
H     0.7353415   -5.3461886   -1.1127186 
H     1.4742840   -7.8862440    1.5129258 
H     1.5099232   -6.1354022    1.0975065 
H    -0.0429601   -6.9306435    1.4982642 
H     0.4425324   -9.5436971   -0.1266027 
H    -1.0754473   -8.5958529   -0.2004268 
H    -0.1817740   -8.9680302   -1.7092831 
H     1.8771975   -4.4493765   -3.5343947 
C    -2.5822364    1.2809071    0.6730733 
C    -1.7836269    0.2034251    0.4981791 
C    -0.3880179    0.0626174    0.9070619 
C     0.4126204    1.0058211    1.5636033 
N     1.6447715    0.4641089    1.8432888 
C     1.6946465   -0.8349396    1.3941985 
C     0.4458705   -1.1147719    0.7722027 
C     0.3675271   -2.3980165    0.1568773 
N    -0.6870855   -2.7849562   -0.6201324 
N     1.3737447   -3.2825891    0.3326149 
C     2.4661281   -2.8958503    1.0157975 
N     2.7245266   -1.6889426    1.5421649 
H    -3.6186886    1.2708115    0.3213096 
H    -2.2341706    2.1960658    1.1653661 
H    -2.2242699   -0.6763015    0.0142530 
H     0.1881963    2.0341341    1.8435491 
H     2.4053956    0.9465530    2.3203649 
H    -1.2213377   -2.0570339   -1.0919575 
H    -0.5193914   -3.6099443   -1.1950729 
H     3.2497687   -3.6575545    1.1242498 
