68
Energy = -1946.333262953
C     1.1838604    2.2512709    0.9942180 
C     1.8068969    1.0803158    0.5280453 
C     1.1259665    0.3078396   -0.4324521 
N    -0.1363828    0.5385053   -0.8061837 
C    -0.7802289    1.5766839   -0.2299174 
C    -0.1344183    2.5046685    0.6154721 
H    -0.6863607    3.3641871    1.0048278 
H     1.7073106    2.9126584    1.6920833 
C    -2.2396692    1.6075667   -0.4049489 
N    -2.9696037    2.6563314    0.1058711 
N    -4.2517662    2.5189350    0.1711346 
C    -4.7161628    1.2277630   -0.1407580 
N    -4.1108954    0.6585327   -1.2813642 
N    -2.8329066    0.8325626   -1.3742571 
C    -6.2079320    1.0113157   -0.0878712 
N    -6.9924768    2.0563178    0.2091171 
N    -6.6086303   -0.2473772   -0.3415067 
C    -7.9324159   -0.4719339   -0.3185754 
C    -8.8506808    0.5480909   -0.0341806 
C    -8.3169695    1.8141352    0.2340820 
H    -8.9679163    2.6636342    0.4772504 
H    -8.2651007   -1.4970859   -0.5242581 
H    -9.9278715    0.3613446   -0.0121026 
C     3.1169455    0.6214847    1.1008165 
N     3.0695409   -0.6722710    1.5395513 
O     4.1116727    1.3531872    1.1886223 
C     4.2227916   -1.3404041    2.1319705 
H     2.1452975   -1.1141430    1.6021912 
C     4.9566094   -2.2365917    1.1139015 
H     3.8895955   -1.9428882    2.9933969 
H     4.9157132   -0.5597938    2.4858626 
N     5.4071471   -1.4947693   -0.0576941 
H     4.2969683   -3.0491570    0.7669824 
H     5.8336734   -2.6906376    1.6049063 
C     6.4448383   -0.6062854    0.0443024 
H     4.7390596   -1.3282471   -0.8093749 
O     7.2129340   -0.5581092    1.0045199 
O     6.5073594    0.1602266   -1.0708361 
C     7.4633965    1.2866246   -1.1767069 
C     7.2230828    2.2807371   -0.0317017 
C     7.0877658    1.9078508   -2.5270178 
C     8.8987858    0.7433173   -1.1982480 
H     9.1459970    0.2647769   -0.2384476 
H     9.6046495    1.5727449   -1.3783411 
H     9.0151165    0.0042127   -2.0100031 
H     6.0423396    2.2604655   -2.5088421 
H     7.1964141    1.1654881   -3.3363396 
H     7.7473989    2.7651203   -2.7432552 
H     6.1522844    2.5359617    0.0250583 
H     7.8081803    3.1983886   -0.2163519 
H     7.5283736    1.8476817    0.9324362 
H     1.6188400   -0.5618529   -0.8884130 
C    -2.2200600   -1.3230736    0.7164919 
C    -0.8338462   -1.7317871    0.9978429 
N    -0.3981402   -2.8405421    0.2593478 
C    -1.1096135   -3.5895278   -0.6657091 
N    -2.4247786   -3.1389313   -0.8367812 
C    -2.9544549   -2.0766276   -0.1881354 
H    -3.9904386   -1.8375708   -0.4480834 
H    -2.9927230   -3.6650274   -1.5044453 
H     0.5559839   -3.1623868    0.4400440 
O    -0.6544348   -4.5491286   -1.2706221 
O    -0.0732044   -1.1903243    1.8065241 
C    -2.7567492   -0.1473356    1.3542611 
C    -4.1303677    0.1741540    1.3958411 
H    -2.0520582    0.4205182    1.9700758 
H    -4.8445535   -0.6367454    1.2167062 
H    -4.4421931    0.8915965    2.1614291 
