72
Energy = -1982.785782305
C    -1.5473993    1.2752845   -0.9391373 
C    -0.5124362    2.0590208   -1.4818720 
C     0.7085969    1.4098313   -1.7685936 
N     0.8861082    0.0869679   -1.6777280 
C    -0.1604477   -0.6687850   -1.2781203 
C    -1.3758894   -0.1042542   -0.8338212 
H    -2.1729684   -0.7520080   -0.4620614 
H    -2.4844206    1.7590713   -0.6481283 
C    -0.0047353   -2.1345708   -1.3484385 
N    -1.1160024   -2.9119088   -1.1305409 
N    -0.9488986   -4.1917060   -1.0412287 
C     0.3830062   -4.6267708   -1.1011993 
N     1.1916464   -3.9547147   -2.0297712 
N     1.0261719   -2.6722329   -2.0812175 
C     0.5486453   -6.1212671   -1.0191769 
N    -0.2651154   -6.7478884   -0.1502704 
N     1.4837648   -6.6928708   -1.7930195 
C     1.5866757   -8.0320895   -1.7092250 
C     0.7692582   -8.7931253   -0.8649799 
C    -0.1531444   -8.0843898   -0.0829387 
H    -0.8154908   -8.6018106    0.6227876 
H     2.3491304   -8.5075297   -2.3396568 
H     0.8554594   -9.8817375   -0.8077286 
C    -0.8090858    3.5033967   -1.7836119 
N    -0.0346334    4.0913575   -2.7414603 
O    -1.7618582    4.0882009   -1.2438503 
C    -0.3709737    5.3921517   -3.3168220 
H     0.6878826    3.5419955   -3.2033652 
C     0.3006373    6.5789053   -2.6015314 
H    -0.0780829    5.3883001   -4.3792042 
H    -1.4678374    5.5046510   -3.2589218 
N     0.0036976    6.5726460   -1.1747317 
H     1.3964049    6.5344998   -2.7058387 
H    -0.0542298    7.5159104   -3.0682725 
C     0.9507665    6.1700599   -0.2701368 
H    -0.9572017    6.3390168   -0.9138124 
O     2.1616164    6.1348288   -0.4874988 
O     0.3446020    5.8525491    0.9025091 
C     1.1041064    5.2454379    2.0165107 
C     2.1030369    6.2658380    2.5773417 
C     0.0005297    4.9218546    3.0297522 
C     1.7841842    3.9597257    1.5263929 
H     2.5782637    4.1795437    0.7980840 
H     2.2279783    3.4351232    2.3909278 
H     1.0317927    3.3058000    1.0545567 
H    -0.5370146    5.8422205    3.3159674 
H    -0.7110456    4.1991226    2.5982461 
H     0.4414519    4.4707910    3.9343768 
H     1.5763447    7.1896641    2.8732830 
H     2.5989012    5.8456804    3.4695631 
H     2.8676751    6.5131270    1.8251629 
H     1.5883724    1.9876135   -2.0854994 
C     1.1884612   -4.0999675    0.6742895 
C     0.8850976   -2.7650290    0.9943840 
C    -0.2617061   -2.3542975    1.7513842 
C    -1.3597824   -3.1670449    2.0930732 
N    -2.3184662   -2.4115353    2.7001729 
C    -1.8982859   -1.0947245    2.7858255 
C    -0.6087136   -1.0212316    2.2088798 
C    -0.0073493    0.2696131    2.2443533 
N     1.2309908    0.5297698    1.7576859 
N    -0.7070085    1.3103844    2.7551653 
C    -1.9408321    1.0871478    3.2371141 
N    -2.6060055   -0.0783295    3.3079518 
H     2.2157699   -4.3272758    0.3736441 
H     0.6763796   -4.8939363    1.2273510 
H     1.6232519   -2.0036460    0.7256701 
H    -1.5240275   -4.2273919    1.9017796 
H    -3.2167156   -2.7587452    3.0368503 
H     1.8918353   -0.2187159    1.5757747 
H     1.6221318    1.4522062    1.9346056 
H    -2.4637001    1.9698588    3.6305003 
