68
Energy = -1946.346918391
N    -0.3682635   -3.1578857   -1.9307455 
C     0.8342166   -3.6089207   -1.5209991 
C     1.8953315   -2.7558668   -1.1771165 
C     1.6908009   -1.3755230   -1.2489212 
C     0.4366751   -0.8950476   -1.6672535 
C    -0.5601732   -1.8350774   -2.0031564 
C     0.1438661    0.5687727   -1.7052000 
N    -0.9341159    0.9579507   -2.5246197 
N    -1.1894016    2.2222787   -2.5385296 
C    -0.3178677    3.0453935   -1.8645972 
N     1.0099880    2.6778438   -1.8199153 
N     1.2660586    1.4143481   -1.7782268 
C    -0.6674028    4.4700567   -1.6644134 
N    -1.9494439    4.8186321   -1.8846548 
N     0.3173229    5.2737284   -1.2166217 
C    -0.0223001    6.5515244   -0.9755448 
C    -1.3254590    7.0249935   -1.1652212 
C    -2.2677226    6.0963013   -1.6321091 
H    -3.3119174    6.3887169   -1.8026273 
H     0.7733323    7.2116346   -0.6069115 
H    -1.5965210    8.0635164   -0.9566238 
C     1.0129883   -5.1026507   -1.3877624 
N    -0.0858242   -5.8258298   -1.7242271 
O     2.0817330   -5.5936156   -0.9902466 
C    -0.1814249   -7.2483879   -1.4443095 
H    -0.9198703   -5.2804572   -1.9597573 
C    -0.8107145   -7.5185950   -0.0550477 
H    -0.7797612   -7.7434518   -2.2270330 
H     0.8434395   -7.6527523   -1.4762521 
N    -0.2059352   -6.6947011    0.9832448 
H    -0.6950586   -8.5882623    0.1922746 
H    -1.8858298   -7.2793540   -0.0642902 
C    -0.7944478   -5.5157868    1.3657710 
H     0.8104446   -6.7305043    1.0793632 
O    -1.9769664   -5.2330860    1.1768438 
O     0.1184763   -4.7321655    1.9946006 
C    -0.2797279   -3.4785617    2.6768533 
C     1.0537095   -2.9756752    3.2413987 
C    -0.8475286   -2.4771600    1.6619443 
C    -1.2744932   -3.8015496    3.7997091 
H    -0.8482447   -4.5602056    4.4786921 
H    -2.2212000   -4.1806018    3.3849821 
H    -1.4815064   -2.8877179    4.3828159 
H    -0.1076598   -2.2840467    0.8681778 
H    -1.0656825   -1.5252008    2.1756615 
H    -1.7705756   -2.8576622    1.2018964 
H     1.7747505   -2.8085037    2.4227371 
H     0.9002307   -2.0243913    3.7784482 
H     1.4808064   -3.7131125    3.9421246 
H     2.8454567   -3.1853800   -0.8499285 
H     2.4870176   -0.6740377   -0.9831178 
H    -1.5454305   -1.4917423   -2.3386304 
C     0.1018916    3.1241685    1.1171005 
C    -0.4471182    4.4139662    1.5730106 
N     0.4826355    5.2416231    2.2213419 
C     1.8269885    4.9983693    2.4507574 
N     2.2465226    3.7472078    1.9805670 
C     1.4376962    2.8589622    1.3532340 
H     1.9248913    1.9346923    1.0324769 
H     3.2316595    3.5218889    2.1329937 
H     0.1308654    6.1415870    2.5581226 
O     2.5838496    5.7809886    3.0082338 
O    -1.6122475    4.7807886    1.4235219 
C    -0.7839801    2.2366814    0.4005105 
C    -0.5429029    0.8741870    0.1292809 
H    -1.7943198    2.6294924    0.2443122 
H     0.2855515    0.3801104    0.6476176 
H    -1.4237062    0.2404265   -0.0094552 
