72
Energy = -1982.813514954
C     2.8758313   -3.2197172   -0.9307161 
C     2.1718290   -4.4070686   -1.1882511 
N     0.9324974   -4.4306595   -1.7214237 
C     0.3415148   -3.2672236   -2.0008003 
C     0.9569331   -2.0154769   -1.7633284 
C     2.2577893   -2.0032513   -1.2206928 
H     2.7588097   -1.0519287   -1.0209184 
H     3.8780559   -3.2745085   -0.5000795 
C     0.2253116   -0.7698288   -2.0148999 
N     0.8814204    0.4135713   -1.9618785 
N     0.1660146    1.5204475   -1.9278978 
C    -1.1803406    1.3795381   -1.9009935 
N    -1.7907266    0.2532531   -2.3418110 
N    -1.0720196   -0.8423451   -2.4205204 
C    -2.0203519    2.5507304   -1.5311771 
N    -1.3679615    3.6475170   -1.1046494 
N    -3.3534209    2.3923612   -1.6175708 
C    -4.1017760    3.4468026   -1.2555338 
C    -3.5320163    4.6472498   -0.8085459 
C    -2.1323401    4.6923923   -0.7472949 
H    -1.6089200    5.5907643   -0.3963650 
H    -5.1905631    3.3261633   -1.3212159 
H    -4.1481588    5.5010573   -0.5136428 
C     2.8212354   -5.7357322   -0.8855279 
N     2.0060745   -6.8005253   -1.0938878 
O     3.9937902   -5.8098719   -0.4884936 
C     2.4893282   -8.1677700   -1.0539364 
H     1.0885230   -6.5782894   -1.4908145 
C     2.8569691   -8.6828890   -2.4665337 
H     1.7230960   -8.8236969   -0.6068524 
H     3.3806626   -8.1749572   -0.4055236 
N     3.7125142   -7.7489969   -3.1842361 
H     1.9476871   -8.8140741   -3.0739959 
H     3.3605315   -9.6609530   -2.3773645 
C     3.1710883   -6.8053956   -4.0196555 
H     4.6151011   -7.5132919   -2.7696390 
O     2.0288394   -6.8517439   -4.4749128 
O     4.0919471   -5.8423600   -4.2790288 
C     3.8320157   -4.7719182   -5.2713240 
C     3.5767390   -5.3960721   -6.6502721 
C     5.1484200   -3.9866999   -5.2570276 
C     2.6664950   -3.8913022   -4.8007338 
H     1.7360660   -4.4734647   -4.7357690 
H     2.5253195   -3.0600440   -5.5127588 
H     2.8893260   -3.4636687   -3.8092117 
H     5.9885788   -4.6342858   -5.5608242 
H     5.3502214   -3.5983624   -4.2439969 
H     5.0861139   -3.1358940   -5.9562733 
H     4.4075078   -6.0700724   -6.9222978 
H     3.5140890   -4.5966838   -7.4086266 
H     2.6353552   -5.9660066   -6.6543097 
C    -1.3476088    0.4627272    0.8795288 
C    -0.6061496   -0.6697419    0.9620983 
C    -1.0857799   -2.0400726    0.8133157 
C    -2.2747678   -2.4428704    0.1987329 
N    -2.3533649   -3.8163838    0.1870139 
C    -1.2292891   -4.3490916    0.7741661 
C    -0.4071513   -3.2666707    1.1857413 
C     0.8162603   -3.6533283    1.8102758 
N     1.7365877   -2.7676339    2.2694218 
N     1.1126296   -4.9701449    1.9335499 
C     0.2286058   -5.8798194    1.4823848 
N    -0.9601004   -5.6625468    0.9050916 
H    -0.8793113    1.4457706    0.9886432 
H    -2.4327183    0.4419907    0.7254974 
H     0.4705294   -0.5552029    1.1457558 
H    -3.0587411   -1.8415201   -0.2600116 
H    -3.1110700   -4.3614527   -0.2221149 
H     1.4988855   -1.7917044    2.4165042 
H     2.5392685   -3.1337999    2.7779448 
H     0.5240773   -6.9302853    1.6081756 
H    -0.6677781   -3.3068572   -2.4237801 
