72
Energy = -1982.809917822
C     4.1268515   -2.8704854   -1.5953014 
C     3.6266141   -3.7598197   -2.5599320 
N     2.5091931   -3.5188594   -3.2775088 
C     1.8527215   -2.3751558   -3.0591286 
C     2.2918185   -1.3974708   -2.1353842 
C     3.4591560   -1.6625088   -1.3914811 
H     3.8183088   -0.9334789   -0.6612831 
H     5.0292309   -3.1338183   -1.0381698 
C     1.5459592   -0.1393965   -1.9611129 
N     2.0706742    0.7991139   -1.1300862 
N     1.3626092    1.8871731   -0.9080204 
C     0.1868833    2.0275776   -1.5701505 
N    -0.2657843    1.1676735   -2.5026482 
N     0.4172814    0.0462278   -2.6838598 
C    -0.6426665    3.2262016   -1.2574790 
N    -0.3484072    3.8781124   -0.1174050 
N    -1.6200487    3.5358924   -2.1292555 
C    -2.3837459    4.5935323   -1.8140393 
C    -2.1852827    5.3346160   -0.6399244 
C    -1.1288726    4.9289096    0.1862459 
H    -0.9017474    5.4596459    1.1193835 
H    -3.1809610    4.8561106   -2.5210982 
H    -2.8185516    6.1889151   -0.3855237 
C     4.3931258   -5.0277732   -2.8572927 
N     4.0224230   -5.6533447   -4.0022160 
O     5.3190084   -5.4108598   -2.1227855 
C     4.7138761   -6.8364428   -4.4897684 
H     3.2054596   -5.2742570   -4.4872823 
C     4.0365485   -8.1566185   -4.0613632 
H     4.7773203   -6.7947438   -5.5897419 
H     5.7363933   -6.7964439   -4.0785851 
N     3.6991609   -8.1516628   -2.6444074 
H     3.0940377   -8.3117803   -4.6097561 
H     4.7154429   -8.9951548   -4.3012428 
C     2.3932214   -8.0398258   -2.2432954 
H     4.4003373   -7.7909670   -1.9939981 
O     1.4225254   -8.2656424   -2.9660137 
O     2.3425076   -7.6729660   -0.9393236 
C     1.0437723   -7.4838903   -0.2485484 
C     0.3124270   -8.8298359   -0.1607494 
C     1.4805284   -6.9937459    1.1363540 
C     0.2218808   -6.4073874   -0.9707306 
H    -0.1042731   -6.7556004   -1.9613586 
H    -0.6650617   -6.1597457   -0.3619580 
H     0.8310134   -5.4945393   -1.0753491 
H     2.1300102   -7.7419477    1.6224005 
H     2.0285796   -6.0423606    1.0431921 
H     0.5947896   -6.8256235    1.7716912 
H     0.9538677   -9.5822403    0.3303918 
H    -0.6068631   -8.7107621    0.4384825 
H     0.0391876   -9.1896882   -1.1646148 
C    -2.7762084    1.2596622    0.1393949 
C    -1.9788198    0.1673328    0.1061340 
C    -0.6828049    0.0024655    0.7586860 
C    -0.0162308    0.9322066    1.5685564 
N     1.1576252    0.3933388    2.0345551 
C     1.3019509   -0.8882340    1.5595172 
C     0.1747735   -1.1656918    0.7352535 
C     0.2105110   -2.4433274    0.1007626 
N    -0.7074224   -2.8466759   -0.8200798 
N     1.1961935   -3.3138570    0.4120526 
C     2.1603274   -2.9266975    1.2647073 
N     2.3097279   -1.7308063    1.8536639 
H    -3.7309134    1.2716105   -0.3957874 
H    -2.5095722    2.1641905    0.6978174 
H    -2.3395921   -0.6986926   -0.4617347 
H    -0.2966280    1.9502287    1.8344396 
H     1.8228537    0.8677724    2.6437044 
H    -1.2841758   -2.1645709   -1.3049965 
H    -0.5072874   -3.7083085   -1.3247517 
H     2.9304699   -3.6784177    1.4843842 
H     0.9432212   -2.2017568   -3.6446072 
