72
Energy = -1982.798031497
C    -1.7396454    3.1103697   -1.5063262 
C    -0.6232818    3.9575756   -1.5948056 
N     0.6354864    3.4995910   -1.7468487 
C     0.8283973    2.1762555   -1.8026512 
C    -0.2238853    1.2411532   -1.7118668 
C    -1.5348908    1.7293105   -1.5648703 
H    -2.3745418    1.0316500   -1.4951640 
H    -2.7350439    3.5446098   -1.3831347 
C     0.0575278   -0.2257505   -1.7290300 
N    -1.0248783   -1.0437769   -2.1018581 
N    -0.7778242   -2.3109500   -2.1384105 
C     0.5171378   -2.7065407   -1.9062645 
N     1.5332615   -1.8729246   -2.2981914 
N     1.2946531   -0.6021541   -2.2897586 
C     0.7920690   -4.1380252   -1.6651812 
N    -0.2741997   -4.9607521   -1.5914218 
N     2.0810677   -4.4823675   -1.4734962 
C     2.3168174   -5.7724557   -1.1889838 
C     1.2861700   -6.7175742   -1.0886356 
C    -0.0153846   -6.2459560   -1.3044613 
H    -0.8800452   -6.9182426   -1.2319778 
H     3.3635229   -6.0584789   -1.0243624 
H     1.4863172   -7.7635806   -0.8424951 
C    -0.8136318    5.4518942   -1.4770339 
N     0.3364958    6.1642423   -1.5970806 
O    -1.9344009    5.9493013   -1.2861447 
C     0.4059317    7.5809312   -1.2861500 
H     1.1915309    5.6038942   -1.6630240 
C     0.8971630    7.8236107    0.1609197 
H     1.0803339    8.0902916   -1.9955446 
H    -0.6106393    7.9870962   -1.4140664 
N     0.1625373    7.0271881    1.1324862 
H     1.9584873    7.5441164    0.2555905 
H     0.7975201    8.8958111    0.4031017 
C     0.6285190    5.8013671    1.5317494 
H    -0.8443712    7.1739625    1.2119252 
O     1.7822492    5.4068643    1.3657537 
O    -0.3652161    5.1140114    2.1506431 
C    -0.1027203    3.8238978    2.8305711 
C     0.9314354    4.0288499    3.9462089 
C    -1.4778455    3.4735047    3.4102511 
C     0.3404386    2.7694367    1.8077457 
H     1.2965402    3.0478788    1.3416244 
H     0.4550113    1.7967162    2.3157510 
H    -0.4220374    2.6626240    1.0184421 
H    -1.8094603    4.2531917    4.1170776 
H    -2.2234044    3.3900447    2.6010087 
H    -1.4261190    2.5098927    3.9446264 
H     0.6029776    4.8339591    4.6261811 
H     1.0303930    3.0977041    4.5303442 
H     1.9139638    4.2917310    3.5257015 
C     0.2792857   -0.5779951    0.2180159 
C     0.4653678   -1.9425104    0.5289967 
C    -0.5563383   -2.8391391    0.9822758 
C    -1.9445154   -2.6278004    0.8751156 
N    -2.6106109   -3.7507215    1.2576021 
C    -1.7076577   -4.7316522    1.6298714 
C    -0.4068572   -4.1925406    1.4898619 
C     0.6480166   -5.0674045    1.8854287 
N     1.9558573   -4.7195548    1.8874688 
N     0.3453011   -6.3339204    2.2677548 
C    -0.9437942   -6.7108167    2.3075375 
N    -2.0304618   -5.9729376    2.0288119 
H     1.1617053    0.0634604    0.3006266 
H    -0.6556913   -0.1049038    0.5359615 
H     1.4963190   -2.3113935    0.5325586 
H    -2.4884262   -1.7560429    0.5130411 
H    -3.6244844   -3.8645151    1.2561918 
H     2.2539364   -3.7548853    1.7872061 
H     2.6350903   -5.3869551    2.2476954 
H    -1.1275141   -7.7493616    2.6154167 
H     1.8599169    1.8272021   -1.9256729 
