68
Energy = -1946.346384938
N    -1.0432476   -2.9178384    1.1680189 
C     0.2144020   -3.3187852    1.4413164 
C     1.3396066   -2.5044808    1.2350884 
C     1.1477503   -1.2224856    0.7138228 
C    -0.1596126   -0.8001329    0.4123790 
C    -1.2241367   -1.6897866    0.6673754 
C    -0.4218472    0.5592200   -0.1460615 
N    -1.6611157    0.7266386   -0.7936271 
N    -1.8848173    1.9065998   -1.2650212 
C    -0.8550484    2.8148591   -1.1952224 
N     0.4333315    2.3366434   -1.2961875 
N     0.6643300    1.1680717   -0.8003330 
C    -1.1132034    4.2361391   -1.5190319 
N    -2.4019816    4.6244646   -1.5676438 
N    -0.0312371    5.0251663   -1.6708682 
C    -0.2728704    6.3271848   -1.9001258 
C    -1.5716345    6.8439371   -1.9670044 
C    -2.6199216    5.9282252   -1.7913698 
H    -3.6671061    6.2555809   -1.8263130 
H     0.6033418    6.9770553   -2.0210680 
H    -1.7600053    7.9065129   -2.1430605 
C     0.4031186   -4.7263847    1.9551079 
N    -0.7529338   -5.4256687    2.0927518 
O     1.5314201   -5.1775176    2.2088275 
C    -0.7576010   -6.8577587    2.3370166 
H    -1.5979853   -4.9484130    1.7657115 
C    -0.8034913   -7.6629911    1.0146177 
H    -1.6216395   -7.1272238    2.9670417 
H     0.1670797   -7.0934416    2.8885815 
N     0.1719359   -7.1778962    0.0478415 
H    -0.6221867   -8.7295815    1.2339299 
H    -1.7935026   -7.5699778    0.5408579 
C    -0.1934727   -6.2697023   -0.9140085 
H     1.1496066   -7.1413443    0.3409667 
O    -1.3521573   -6.0658802   -1.2747082 
O     0.9121353   -5.6582900   -1.4091723 
C     0.8410033   -4.7770108   -2.5998536 
C     2.3070362   -4.3742607   -2.7946605 
C    -0.0248055   -3.5456116   -2.3011464 
C     0.3214735   -5.5823225   -3.7985258 
H     0.9380274   -6.4860041   -3.9458288 
H    -0.7260925   -5.8828655   -3.6427145 
H     0.3830084   -4.9652032   -4.7114050 
H     0.3802877   -2.9960524   -1.4365263 
H    -0.0118589   -2.8711521   -3.1746863 
H    -1.0626356   -3.8367046   -2.0847527 
H     2.6810383   -3.8539771   -1.8962020 
H     2.3991152   -3.6965214   -3.6600631 
H     2.9332496   -5.2649737   -2.9734555 
H     2.3333475   -2.8910788    1.4744600 
H     1.9965557   -0.5585248    0.5261403 
H    -2.2537924   -1.3893791    0.4427252 
C     0.3043924    3.9929406    1.3240154 
C    -0.0795140    5.4158399    1.3204124 
N     1.0041081    6.3077481    1.3454559 
C     2.3563573    6.0072311    1.3468221 
N     2.6123979    4.6302724    1.3526810 
C     1.6495991    3.6758989    1.3443591 
H     2.0160644    2.6463374    1.3350104 
H     3.5982217    4.3610702    1.3603183 
H     0.7709747    7.3040672    1.3519098 
O     3.2485191    6.8442976    1.3475598 
O    -1.2352013    5.8387177    1.2991355 
C    -0.7556163    3.0139461    1.2507605 
C    -0.6243870    1.6357389    1.5146198 
H    -1.7621376    3.4385464    1.1713731 
H     0.2949849    1.2815481    1.9931446 
H    -1.5299422    1.1111518    1.8338138 
