68
Energy = -1946.360637140
N     1.8852365   -3.2871058   -3.4489564 
C     2.9602170   -3.3383142   -2.6357731 
C     3.3449676   -2.2742324   -1.8025036 
C     2.5864094   -1.1033129   -1.8251748 
C     1.4649110   -1.0360898   -2.6778588 
C     1.1558370   -2.1677233   -3.4682974 
C     0.6239412    0.1687009   -2.7342662 
N    -0.4585081    0.1820693   -3.5532705 
N    -1.3315523    1.1522825   -3.3848152 
C    -1.0601434    2.0956209   -2.4547924 
N     0.1857066    2.2814133   -1.9571203 
N     1.0348869    1.2845287   -2.0798385 
C    -2.1390136    3.0416448   -2.0634565 
N    -3.3888107    2.6959635   -2.4211786 
N    -1.7741409    4.1295971   -1.3613348 
C    -2.7667251    4.9568764   -0.9932894 
C    -4.1076172    4.6955874   -1.3032980 
C    -4.3684225    3.5255414   -2.0306982 
H    -5.3933305    3.2447302   -2.3035302 
H    -2.4793227    5.8491944   -0.4230268 
H    -4.9109974    5.3666945   -0.9878962 
C     3.7989905   -4.5956865   -2.6652778 
N     3.3333503   -5.5482106   -3.5125111 
O     4.8194218   -4.7065063   -1.9685043 
C     4.1135020   -6.7251045   -3.8538155 
H     2.5240732   -5.2776169   -4.0788884 
C     4.9450344   -6.5037746   -5.1408523 
H     3.4442438   -7.5913419   -3.9885829 
H     4.7830028   -6.9261266   -3.0017525 
N     5.6923412   -5.2552217   -5.1014375 
H     5.6366420   -7.3534253   -5.2751909 
H     4.2837903   -6.4521900   -6.0202700 
C     5.1742827   -4.1114421   -5.6535061 
H     6.3573162   -5.1210826   -4.3384686 
O     4.2563833   -4.0873302   -6.4726581 
O     5.8404809   -3.0305598   -5.1739185 
C     5.6169313   -1.6748094   -5.7309783 
C     6.6048597   -0.8244370   -4.9244936 
C     4.1726213   -1.2264407   -5.4694781 
C     5.9712061   -1.6691928   -7.2242802 
H     6.9961066   -2.0509679   -7.3736528 
H     5.2676613   -2.2938786   -7.7956325 
H     5.9243732   -0.6358572   -7.6089890 
H     3.9580497   -1.2515688   -4.3887701 
H     4.0425557   -0.1892436   -5.8233440 
H     3.4574248   -1.8787273   -5.9909666 
H     6.3744887   -0.8911165   -3.8473489 
H     6.5349531    0.2312014   -5.2366248 
H     7.6386607   -1.1743729   -5.0866852 
H     4.2276280   -2.3817598   -1.1674777 
H     2.8520587   -0.2461821   -1.2002587 
H     0.2885578   -2.1473931   -4.1375391 
C    -1.4973058    1.5573112    0.7754064 
C    -2.6760636    2.3421871    1.1674816 
N    -2.3845011    3.5121485    1.8902854 
C    -1.1389230    4.0292658    2.2134677 
N    -0.0891746    3.2183233    1.7896572 
C    -0.2544990    2.0517740    1.1013142 
H     0.6732640    1.5502224    0.8165383 
H     0.8512153    3.5616392    1.9907131 
H    -3.1875125    4.0743715    2.1824016 
O    -0.9709283    5.0891408    2.8071776 
O    -3.8468733    2.0567146    0.9036417 
C    -1.7220316    0.3367807   -0.0019847 
C    -0.8295629   -0.6500771   -0.2485045 
H    -2.7388145    0.2532270   -0.4064438 
H     0.1826527   -0.6520976    0.1733490 
H    -1.1056032   -1.5107624   -0.8661509 
