72
Energy = -1982.814224387
C     3.2937858   -0.5271444   -1.6365418 
C     3.0211865   -1.8963134   -1.7959550 
N     1.9847188   -2.3632708   -2.5201735 
C     1.1424501   -1.4809202   -3.0633759 
C     1.3056221   -0.0828518   -2.9323780 
C     2.4256038    0.3958521   -2.2200668 
H     2.5776321    1.4718264   -2.0975166 
H     4.1543132   -0.2163190   -1.0397364 
C     0.2804976    0.8414975   -3.4211612 
N     0.5508837    2.1663727   -3.5242818 
N    -0.4775933    2.9905209   -3.5230773 
C    -1.7086417    2.4397871   -3.4284684 
N    -1.9342508    1.1796601   -3.8680381 
N    -0.9098214    0.3548089   -3.8558378 
C    -2.8463714    3.2776094   -2.9788980 
N    -2.5265014    4.4610030   -2.4235441 
N    -4.0807582    2.7636765   -3.1208115 
C    -5.0936476    3.5215875   -2.6701795 
C    -4.8817762    4.7751743   -2.0790959 
C    -3.5511713    5.2038831   -1.9751003 
H    -3.2996457    6.1679394   -1.5153775 
H    -6.1056216    3.1120986   -2.7822984 
H    -5.7118369    5.3844616   -1.7111137 
C     3.8931502   -2.9132606   -1.0980472 
N     3.6644144   -4.1949759   -1.4634842 
O     4.7344918   -2.5719930   -0.2496555 
C     4.3386277   -5.3129126   -0.8135391 
H     2.9110928   -4.3642043   -2.1419962 
C     3.6461957   -6.6417607   -1.1403481 
H     5.3963461   -5.3679859   -1.1361521 
H     4.3464863   -5.1327293    0.2776783 
N     2.2420427   -6.6743799   -0.7499471 
H     3.6913872   -6.8331266   -2.2251562 
H     4.1788565   -7.4573092   -0.6256744 
C     1.2600581   -6.2605971   -1.6019765 
H     1.9970193   -6.8346033    0.2261177 
O     1.4618607   -5.9446046   -2.7781069 
O     0.0604402   -6.2549689   -0.9755400 
C    -1.1668052   -5.7919435   -1.6718652 
C    -1.5242070   -6.7974665   -2.7733643 
C    -2.2033945   -5.8031986   -0.5432555 
C    -0.9689202   -4.3698853   -2.2173038 
H    -0.2996346   -4.3624109   -3.0883391 
H    -1.9484513   -3.9496250   -2.5035950 
H    -0.5136611   -3.7345837   -1.4406265 
H    -2.2797473   -6.8105164   -0.1001080 
H    -1.9181350   -5.0906129    0.2499823 
H    -3.1914909   -5.5137017   -0.9383191 
H    -1.6372486   -7.8091166   -2.3469371 
H    -2.4793958   -6.5072006   -3.2440624 
H    -0.7391180   -6.8163976   -3.5451914 
C     1.3098319   -3.7209347    1.1036378 
C     0.5487857   -2.6196192    0.9273633 
C     1.0011538   -1.2290996    0.9645031 
C     2.1620803   -0.7428546    1.5664178 
N     2.2364008    0.6246978    1.4105105 
C     1.1448799    1.0675056    0.7073469 
C     0.3428210   -0.0663897    0.4040366 
C    -0.7766307    0.2083510   -0.4349926 
N    -1.6130529   -0.7454272   -0.9147194 
N    -1.0277994    1.4871260   -0.8092341 
C    -0.2040022    2.4696034   -0.3869879 
N     0.9014344    2.3478716    0.3532278 
H     0.8617891   -4.7180786    1.0664582 
H     2.3909897   -3.6576542    1.2717708 
H    -0.5265860   -2.7649784    0.7546498 
H     2.9427197   -1.2789590    2.1044170 
H     2.9776431    1.2222334    1.7736937 
H    -1.4329159   -1.7341898   -0.7810529 
H    -2.3449207   -0.4739167   -1.5675197 
H    -0.4707825    3.4799539   -0.7265315 
H     0.2930149   -1.8818191   -3.6278049 
