68
Energy = -1946.361979228
N     1.2510471   -4.2707491   -1.5810215 
C     2.4067279   -4.2823220   -0.8845355 
C     3.0143211   -3.1174743   -0.3870995 
C     2.4012638   -1.8876542   -0.6332732 
C     1.2004770   -1.8630246   -1.3723364 
C     0.6647556   -3.0942164   -1.8185213 
C     0.5085775   -0.5985358   -1.6651438 
N    -0.5603796   -0.6141664   -2.5017932 
N    -1.2897794    0.4753969   -2.5995103 
C    -0.9418971    1.5238467   -1.8154990 
N     0.2910515    1.6411753   -1.2725210 
N     1.0471822    0.5653166   -1.2193860 
C    -1.9028204    2.6476900   -1.6532288 
N    -3.0028442    2.6277980   -2.4273194 
N    -1.5941667    3.5621465   -0.7162574 
C    -2.4816441    4.5528667   -0.5395362 
C    -3.6590517    4.6420087   -1.2958218 
C    -3.8721089    3.6362416   -2.2472986 
H    -4.7708608    3.6311798   -2.8767624 
H    -2.2470830    5.2957907    0.2329761 
H    -4.3781268    5.4517164   -1.1455985 
C     3.0505847   -5.6250831   -0.6218555 
N     2.3809442   -6.6716824   -1.1670617 
O     4.1001752   -5.7206117    0.0325550 
C     2.7401158   -8.0522319   -0.8925519 
H     1.4899813   -6.4425569   -1.6166727 
C     1.9260726   -8.6338281    0.2875427 
H     2.5763895   -8.6652307   -1.7947259 
H     3.8150849   -8.0637638   -0.6488850 
N     1.9581724   -7.7618119    1.4526738 
H     2.3281351   -9.6279828    0.5490198 
H     0.8680896   -8.7506588    0.0040968 
C     0.9642172   -6.8409111    1.6639664 
H     2.8714064   -7.5264455    1.8440237 
O    -0.1472804   -6.8809755    1.1373434 
O     1.3907248   -5.9061388    2.5506320 
C     0.4693155   -4.8818460    3.0949347 
C     1.3756285   -4.1045151    4.0561434 
C    -0.0364686   -3.9702778    1.9690387 
C    -0.6769932   -5.5705590    3.8482257 
H    -0.2715929   -6.2583757    4.6104352 
H    -1.3154638   -6.1383407    3.1542616 
H    -1.2922772   -4.8088994    4.3574737 
H     0.8125318   -3.4925485    1.4522841 
H    -0.6683702   -3.1777927    2.4036281 
H    -0.6266677   -4.5377314    1.2349485 
H     2.2296717   -3.6712445    3.5078173 
H     0.8077731   -3.2864177    4.5305188 
H     1.7641113   -4.7704701    4.8454800 
H     3.9455617   -3.1981468    0.1789344 
H     2.8377562   -0.9545377   -0.2669360 
H    -0.2721654   -3.1096662   -2.3869225 
C    -3.4881161    0.2152253   -0.1607234 
C    -4.3948196    1.3240704    0.1666156 
N    -5.5639286    1.3715236   -0.6124559 
C    -5.9236259    0.5439634   -1.6656293 
N    -4.9953968   -0.4673034   -1.9016802 
C    -3.8369028   -0.6206872   -1.1974894 
H    -3.2024255   -1.4458634   -1.5290868 
H    -5.2064591   -1.0966598   -2.6775980 
H    -6.2170596    2.1299470   -0.4014743 
O    -6.9474466    0.6824248   -2.3262347 
O    -4.1953287    2.1804395    1.0318208 
C    -2.2335155    0.1220094    0.5875751 
C    -1.3753825   -0.9236853    0.6188885 
H    -2.0021453    1.0212015    1.1724756 
H    -1.5738878   -1.8710473    0.1042289 
H    -0.4483346   -0.8657975    1.1971983 
