68
Energy = -1946.346741655
N     1.8085525    0.6937265    0.1405484 
C     2.3426776    0.4301540   -1.0676598 
C     1.6772614   -0.3165488   -2.0560234 
C     0.3880803   -0.7750175   -1.7900914 
C    -0.1928575   -0.4816907   -0.5397757 
C     0.5764512    0.2440684    0.3992479 
C    -1.5857774   -0.8243658   -0.2386439 
N    -2.0539913   -0.6236767    1.0432122 
N    -3.3275102   -0.7093358    1.2304531 
C    -4.0901121   -0.9245488    0.0675796 
N    -3.5374715   -1.8409131   -0.8400045 
N    -2.2652235   -1.7216722   -1.0318354 
C    -5.5741353   -1.0252845    0.3131815 
N    -6.0752664   -0.1282557    1.1801549 
N    -6.2595064   -1.9667479   -0.3515848 
C    -7.5803358   -2.0266777   -0.0992506 
C    -8.2093349   -1.1585872    0.8014313 
C    -7.3940624   -0.2033594    1.4234664 
H    -7.8099246    0.5268031    2.1292785 
H    -8.1499546   -2.7949460   -0.6376182 
H    -9.2830447   -1.2150375    1.0006463 
C     3.7364499    0.9431362   -1.3344399 
N     4.2589656    1.6716554   -0.3132658 
O     4.3254776    0.7023892   -2.4002280 
C     5.6632197    2.0404703   -0.2741005 
H     3.6860809    1.7032078    0.5355412 
C     6.5097486    0.9847879    0.4791898 
H     5.7793272    3.0245715    0.2100214 
H     6.0043257    2.1200956   -1.3192007 
N     6.2215739   -0.3687549    0.0256351 
H     7.5808961    1.2115523    0.3383424 
H     6.2885095    1.0125851    1.5579059 
C     5.3100178   -1.1492046    0.6914373 
H     6.3289515   -0.5666760   -0.9704649 
O     4.9398636   -0.9544755    1.8486626 
O     4.9064271   -2.1655069   -0.1120069 
C     4.0698458   -3.2755605    0.4046293 
C     3.9224476   -4.1729954   -0.8291603 
C     2.7025391   -2.7455659    0.8570024 
C     4.8206049   -3.9988290    1.5310349 
H     5.8188612   -4.3147019    1.1814442 
H     4.9373136   -3.3427911    2.4073173 
H     4.2555741   -4.8979404    1.8316037 
H     2.1965108   -2.2363405    0.0209468 
H     2.0721821   -3.5926760    1.1782051 
H     2.8111624   -2.0387439    1.6920527 
H     3.4389800   -3.6151623   -1.6494515 
H     3.3012438   -5.0508824   -0.5838813 
H     4.9104625   -4.5228350   -1.1740676 
H     2.1780178   -0.5101746   -3.0078553 
H    -0.1783432   -1.3392398   -2.5366362 
H     0.1608836    0.4644389    1.3892668 
C    -1.9606920    2.1788951   -0.2685612 
C    -0.7074218    2.7457679   -0.8031304 
N    -0.0399723    3.6068025    0.0845150 
C    -0.4190845    3.9780368    1.3639944 
N    -1.6291221    3.3977251    1.7674820 
C    -2.3619166    2.5509702    1.0018664 
H    -3.2733271    2.1683428    1.4693877 
H    -1.9516562    3.6471813    2.7046529 
H     0.8389635    4.0082692   -0.2518595 
O     0.2229097    4.7322886    2.0818409 
O    -0.2434702    2.5196278   -1.9195056 
C    -2.6787721    1.2357623   -1.0952266 
C    -4.0025593    0.8024829   -0.8888048 
H    -2.1926520    1.0070369   -2.0495095 
H    -4.6248388    1.3375204   -0.1631636 
H    -4.5386224    0.4359874   -1.7699312 
