72
Energy = -1982.817265193
C     4.3305676   -2.4699111    0.7315673 
C     4.4596014   -3.2288246   -0.4434514 
N     4.0856749   -2.7820721   -1.6608219 
C     3.4794826   -1.5936527   -1.7388959 
C     3.2038117   -0.8009762   -0.5992056 
C     3.6771610   -1.2434960    0.6553968 
H     3.4918137   -0.6429807    1.5496975 
H     4.6722921   -2.8872402    1.6811231 
C     2.3524673    0.3844952   -0.6881218 
N     2.0412787    1.0379344    0.4623675 
N     1.0350083    1.8799041    0.4413122 
C     0.3798960    2.0246121   -0.7386122 
N     0.9545886    1.7086063   -1.9197123 
N     1.9755370    0.8754967   -1.8999784 
C    -0.9560764    2.6725634   -0.7132249 
N    -1.6619405    2.4894696    0.4218143 
N    -1.3579826    3.3340189   -1.8112298 
C    -2.5793609    3.8921832   -1.7507753 
C    -3.3932951    3.7877381   -0.6142586 
C    -2.8815303    3.0520106    0.4629854 
H    -3.4654506    2.9009879    1.3789775 
H    -2.9169590    4.4381230   -2.6406111 
H    -4.3852324    4.2458017   -0.5748497 
C     4.9214412   -4.6609985   -0.3318211 
N     4.9809655   -5.3250492   -1.5118288 
O     5.1614600   -5.1743627    0.7738322 
C     5.1126207   -6.7727204   -1.5684288 
H     4.6569079   -4.7953675   -2.3264338 
C     3.7453735   -7.4799023   -1.6834058 
H     5.6085732   -7.0916667   -0.6377832 
H     5.7520353   -7.0501449   -2.4237489 
N     3.1028027   -7.2739392   -2.9731652 
H     3.0679676   -7.1140485   -0.8946789 
H     3.8863775   -8.5639612   -1.5392657 
C     2.2874956   -6.2216411   -3.2622320 
H     3.4277261   -7.8259060   -3.7667749 
O     1.8908869   -5.3866162   -2.4425960 
O     1.9692519   -6.2528285   -4.5793972 
C     1.2873530   -5.1203560   -5.2494470 
C    -0.1375398   -4.9768797   -4.6999825 
C     1.2615436   -5.5718178   -6.7143394 
C     2.1418981   -3.8560299   -5.0834953 
H     2.1984105   -3.5435485   -4.0302307 
H     1.7081273   -3.0358047   -5.6802348 
H     3.1651933   -4.0454888   -5.4512286 
H     0.7036278   -6.5183071   -6.8152509 
H     2.2878808   -5.7237939   -7.0894568 
H     0.7682513   -4.8035684   -7.3331887 
H    -0.6806791   -5.9312363   -4.8101455 
H    -0.6771703   -4.2021829   -5.2712681 
H    -0.1279578   -4.6936727   -3.6382763 
C    -0.0302857   -1.5567485   -3.1236505 
C     0.2215243   -2.2571891   -1.9937744 
C    -0.0484602   -1.7814257   -0.6402956 
C    -0.8210474   -0.6608515   -0.3087857 
N    -0.8083779   -0.4598163    1.0504706 
C    -0.0249826   -1.4205673    1.6454274 
C     0.4388142   -2.2994608    0.6216963 
C     1.2299032   -3.3958777    1.0888995 
N     1.7181325   -4.3944905    0.3185066 
C     1.0427881   -2.5396775    3.2499071 
N     0.2530776   -1.4948246    2.9597542 
H     0.1971933   -1.9743529   -4.1077803 
H    -0.4606412   -0.5487650   -3.1048876 
H     0.6912231   -3.2431403   -2.0894956 
H    -1.4393383   -0.0384911   -0.9527440 
H    -1.2106686    0.3646084    1.5042503 
H     1.6127577   -4.4870203   -0.6935608 
H     2.3143801   -5.0750210    0.7868265 
H     1.3281415   -2.6540296    4.3052146 
N     1.5264254   -3.4729097    2.4137624 
H     3.1608234   -1.2563212   -2.7310810 
