72
Energy = -1982.800994836
C     2.4277121   -0.8627760   -1.8977026 
C     1.2950402   -1.4644283   -2.4727862 
N     0.1503495   -0.7972784   -2.7207817 
C     0.0686679    0.4801757   -2.3361893 
C     1.1221824    1.1568242   -1.6759341 
C     2.3375107    0.4659231   -1.4865033 
H     3.1780942    0.9660776   -0.9966537 
H     3.3309110   -1.4579599   -1.7421016 
C     0.9146014    2.4982887   -1.1285344 
N     1.9806407    3.2043154   -0.6283861 
N     1.7278800    4.2796174    0.0429018 
C     0.3606268    4.5029216    0.3081669 
N    -0.4939967    4.2596974   -0.7760428 
N    -0.2205726    3.1999724   -1.4651871 
C     0.0774254    5.7403157    1.1193690 
N     0.9484517    5.9942859    2.1117218 
N    -1.0179910    6.4533332    0.8145835 
C    -1.2451573    7.5441758    1.5685038 
C    -0.3934410    7.9208872    2.6143625 
C     0.7091543    7.0895947    2.8519952 
H     1.4171130    7.3029863    3.6631096 
H    -2.1394289    8.1327733    1.3262177 
H    -0.5849126    8.8103386    3.2210191 
C     1.3048691   -2.9466789   -2.7281739 
N     0.1501409   -3.4486437   -3.2200943 
O     2.3021693   -3.6435807   -2.4489613 
C    -0.0665183   -4.8821484   -3.3721711 
H    -0.6266666   -2.7865662   -3.2976758 
C    -0.5918413   -5.5505448   -2.0925013 
H    -0.7845351   -5.0499565   -4.1901589 
H     0.8992142   -5.3316343   -3.6591687 
N     0.3159350   -5.2989179   -0.9766211 
H    -1.5888542   -5.1575365   -1.8278129 
H    -0.7036447   -6.6352431   -2.2858917 
C    -0.1416533   -5.2649633    0.3023277 
H     1.2261866   -4.8762486   -1.1848595 
O    -1.2174610   -5.7299210    0.6702378 
O     0.7819627   -4.6530551    1.1125643 
C     0.6942835   -4.7760780    2.5898815 
C     1.9703292   -4.0684555    3.0606736 
C    -0.5581347   -4.0555888    3.1097668 
C     0.7192996   -6.2606801    2.9788240 
H     1.6166883   -6.7495037    2.5613882 
H     0.7516484   -6.3514808    4.0781664 
H    -0.1785803   -6.7778742    2.6074243 
H    -0.5459952   -2.9976051    2.8000077 
H    -1.4677617   -4.5315015    2.7166202 
H    -0.5695189   -4.0969205    4.2128797 
H     1.9668167   -3.0098439    2.7489906 
H     2.0333724   -4.1036447    4.1613307 
H     2.8633821   -4.5587158    2.6375174 
C    -0.0891570    3.1238438    1.6624718 
C    -0.1509343    1.8195842    1.1258511 
C    -1.3495067    1.1938595    0.6521033 
C    -2.5610679    1.8688418    0.3976005 
N    -3.4695741    1.0030880   -0.1240564 
C    -2.9140747   -0.2615972   -0.2268445 
C    -1.5831090   -0.1878347    0.2527108 
C    -0.8788773   -1.4298709    0.2307334 
N     0.3940249   -1.6012041    0.6575257 
N    -1.4971500   -2.5294809   -0.2616695 
C    -2.7620805   -2.4331931   -0.6920321 
H     0.7683540    3.3677841    2.2970179 
H    -1.0314761    3.5834066    1.9793444 
H     0.7571689    1.2121254    1.1875622 
H    -2.8088219    2.9216139    0.5293436 
H    -4.4212878    1.2430458   -0.4029255 
H     0.9271814   -0.8604456    1.0981614 
H     0.7647170   -2.5555887    0.6654698 
H    -3.2070156   -3.3617525   -1.0749966 
N    -3.5486593   -1.3445913   -0.7054295 
H    -0.8743253    1.0029907   -2.5309369 
