72
Energy = -1982.796528715
C     1.3989650   -2.9017365    1.4709891 
C     0.2283162   -3.6412766    1.7033258 
N    -1.0024217   -3.1829988    1.3978300 
C    -1.1073122   -1.9766196    0.8287773 
C     0.0082848   -1.1657470    0.5318822 
C     1.2859169   -1.6425590    0.8749597 
H     2.1716075   -1.0379838    0.6604511 
H     2.3670017   -3.3291207    1.7444544 
C    -0.1776958    0.1686311   -0.1123759 
N     0.9710129    0.7145655   -0.7149160 
N     0.8060251    1.8544123   -1.2970345 
C    -0.4728836    2.3575044   -1.3426253 
N    -1.5179825    1.4727167   -1.4236270 
N    -1.3600936    0.3169943   -0.8662765 
C    -0.6657687    3.7633361   -1.7549094 
N     0.4470993    4.4965155   -1.9624454 
N    -1.9372942    4.2069748   -1.8221526 
C    -2.1012432    5.4986992   -2.1504084 
C    -1.0167410    6.3526259   -2.3942984 
C     0.2602356    5.7870671   -2.2788959 
H     1.1627103    6.3921124   -2.4346077 
H    -3.1337745    5.8667226   -2.2043842 
H    -1.1595602    7.4067479   -2.6455857 
C     0.3321821   -5.0339169    2.2800584 
N    -0.8644304   -5.6580345    2.4283732 
O     1.4299455   -5.5353592    2.5691550 
C    -0.9690045   -7.0705802    2.7468736 
H    -1.6750756   -5.1419087    2.0740269 
C    -1.2009965   -7.9205497    1.4750963 
H    -1.7951000   -7.2384686    3.4591611 
H    -0.0225296   -7.3607706    3.2310102 
N    -0.2403470   -7.6099351    0.4271974 
H    -2.2021884   -7.7219478    1.0608941 
H    -1.1387355   -8.9911708    1.7360954 
C    -0.5308472   -6.6888477   -0.5452501 
H     0.7488832   -7.7766554    0.6135101 
O    -1.6620523   -6.2730770   -0.7942035 
O     0.6073342   -6.3350747   -1.1945741 
C     0.5780261   -5.4345952   -2.3722581 
C    -0.2349254   -6.0908357   -3.4963056 
C     2.0615419   -5.3389092   -2.7458733 
C     0.0278172   -4.0585013   -1.9752628 
H    -1.0230872   -4.1283147   -1.6607305 
H     0.1037089   -3.3723096   -2.8362746 
H     0.6199961   -3.6385023   -1.1463100 
H     2.4644887   -6.3369626   -2.9884590 
H     2.6403481   -4.9191503   -1.9054677 
H     2.1869717   -4.6833180   -3.6240121 
H     0.1589057   -7.0991443   -3.7117640 
H    -0.1543159   -5.4815503   -4.4130500 
H    -1.2956850   -6.1719027   -3.2141545 
C    -0.4621033    1.3229766    1.4828199 
C    -0.6135199    2.6908657    1.1648249 
C     0.4069069    3.6922626    1.2706046 
C     1.7878219    3.4474505    1.3872124 
N     2.4696826    4.6235924    1.3344736 
C     1.5837578    5.6761480    1.1897549 
C     0.2748449    5.1355659    1.1536872 
C    -0.7658627    6.1050791    1.0440223 
N    -2.0897044    5.8093531    1.0771406 
N    -0.4374232    7.4168053    0.9346877 
C     0.8586502    7.7693765    0.9613747 
N     1.9288027    6.9702792    1.0951655 
H    -1.3716386    0.7943745    1.7837053 
H     0.4409144    1.0157190    2.0211548 
H    -1.6334035    3.0292934    0.9567336 
H     2.3200831    2.5008942    1.4740100 
H     3.4838135    4.7210280    1.3877817 
H    -2.4250826    4.8613142    0.9396498 
H    -2.7450132    6.5598175    0.8640441 
H     1.0630510    8.8441943    0.8617600 
H    -2.1167534   -1.6300272    0.5787241 
