72
Energy = -1982.810878957
C     3.0630157   -3.2653675   -0.8943352 
C     2.3880911   -4.4824497   -1.0863889 
N     1.1143880   -4.5580135   -1.5250038 
C     0.4745600   -3.4213814   -1.8132770 
C     1.0691746   -2.1458331   -1.6704315 
C     2.3917807   -2.0771189   -1.1865102 
H     2.8768875   -1.1058921   -1.0573388 
H     4.0939315   -3.2748346   -0.5321516 
C     0.3134671   -0.9279790   -2.0004305 
N     0.8930132    0.2797521   -1.7920599 
N     0.1105116    1.3407058   -1.8385877 
C    -1.1899474    1.1548067   -2.1512656 
N    -1.6406282    0.0200432   -2.7382682 
N    -0.8799619   -1.0483287   -2.6365223 
C    -2.1398316    2.2797859   -1.9441727 
N    -1.7449791    3.2255461   -1.0728358 
N    -3.3092693    2.2297851   -2.6055943 
C    -4.1712148    3.2288074   -2.3550838 
C    -3.8729089    4.2651538   -1.4595388 
C    -2.6192695    4.2160261   -0.8350664 
H    -2.3132079    4.9843619   -0.1149175 
H    -5.1334657    3.1947709   -2.8803628 
H    -4.5854134    5.0671018   -1.2511582 
C     3.1182249   -5.7809297   -0.8281397 
N     2.3581687   -6.8886819   -1.0213559 
O     4.3074489   -5.7914242   -0.4751638 
C     2.9285279   -8.2242710   -1.0451847 
H     1.4204281   -6.7181645   -1.3965450 
C     3.1997886   -8.7022078   -2.4918924 
H     2.2485457   -8.9338146   -0.5435696 
H     3.8717066   -8.1790405   -0.4770815 
N     3.9331386   -7.7166205   -3.2713622 
H     2.2488360   -8.8834967   -3.0174069 
H     3.7649872   -9.6495256   -2.4599640 
C     3.2705115   -6.7937302   -4.0384055 
H     4.8731593   -7.4615673   -2.9668015 
O     2.0867289   -6.8809590   -4.3634736 
O     4.1218755   -5.7984133   -4.3942909 
C     3.7141426   -4.7364183   -5.3459419 
C     3.3301823   -5.3676683   -6.6912394 
C     4.9941728   -3.9029597   -5.4728501 
C     2.5765958   -3.9019424   -4.7426198 
H     1.6787893   -4.5169673   -4.5862114 
H     2.3313656   -3.0690006   -5.4236298 
H     2.8913446   -3.4767629   -3.7751801 
H     5.8187659   -4.5186923   -5.8708854 
H     5.2924190   -3.5083019   -4.4864855 
H     4.8240035   -3.0543740   -6.1566247 
H     4.1505267   -6.0083937   -7.0585745 
H     3.1519313   -4.5699915   -7.4328751 
H     2.4169515   -5.9738066   -6.5929611 
C    -1.1667984   -1.0220149    0.6378883 
C    -1.9355127    0.0937005    0.6513820 
C    -3.3153556    0.2020127    0.1832893 
C    -3.9465322   -0.6379938   -0.7385111 
N    -5.2127784   -0.1748682   -1.0052463 
C    -5.4440224    0.9749678   -0.2885826 
C    -4.2792349    1.2435652    0.4793352 
C    -4.3673598    2.4007233    1.3090071 
N    -3.3604221    2.8202552    2.1165328 
N    -5.4901432    3.1598114    1.2770851 
C    -6.5025553    2.7855240    0.4716968 
N    -6.5705968    1.7135685   -0.3293627 
H    -0.1260740   -0.9908947    0.9756953 
H    -1.5561643   -1.9941566    0.3128956 
H    -1.4793047    1.0251538    1.0133709 
H    -3.5628253   -1.5196070   -1.2494662 
H    -5.8643917   -0.5874605   -1.6711513 
H    -2.5833374    2.2078713    2.3451181 
H    -3.5463854    3.5942296    2.7519225 
H    -7.3830848    3.4431877    0.4798519 
H    -0.5565412   -3.5065776   -2.1747431 
