68
Energy = -1946.361998985
N     2.1442727   -2.7594552   -3.1278824 
C     3.2323908   -2.7937100   -2.3303404 
C     3.6711459   -1.6891367   -1.5833120 
C     2.8980371   -0.5263235   -1.5986790 
C     1.7339227   -0.4967805   -2.3923703 
C     1.4270475   -1.6361324   -3.1733287 
C     0.7978465    0.6311768   -2.3476382 
N    -0.3357186    0.5677572   -3.0935255 
N    -1.2999323    1.4153950   -2.8142450 
C    -1.0854861    2.2984130   -1.8092556 
N     0.1596284    2.6033397   -1.3774691 
N     1.1218205    1.7450577   -1.6464766 
C    -2.2461766    3.0516742   -1.2628968 
N    -3.4631622    2.6563411   -1.6781665 
N    -1.9760269    4.0257958   -0.3758191 
C    -3.0358564    4.6791483    0.1281554 
C    -4.3508187    4.3638442   -0.2417473 
C    -4.5110699    3.3192335   -1.1629496 
H    -5.5082068    3.0015091   -1.4928458 
H    -2.8264495    5.4760023    0.8529115 
H    -5.2087163    4.8987199    0.1748280 
C     3.9667530   -4.1097214   -2.2238167 
N     3.2766859   -5.1549885   -2.7502341 
O     5.0661672   -4.1974293   -1.6583024 
C     3.8402576   -6.4873069   -2.8738640 
H     2.4234648   -4.9134161   -3.2647320 
C     4.4307394   -6.7276855   -4.2834349 
H     3.0576675   -7.2365110   -2.6650525 
H     4.6299601   -6.5772379   -2.1102765 
N     5.3359665   -5.6640246   -4.6903711 
H     4.9620556   -7.6947481   -4.2940353 
H     3.6235992   -6.7669038   -5.0321687 
C     4.8728973   -4.5785907   -5.3888350 
H     6.1858811   -5.5199626   -4.1441483 
O     3.7853292   -4.5331296   -5.9624171 
O     5.8035893   -3.5908000   -5.3654209 
C     5.6132009   -2.3299848   -6.1214616 
C     6.9161050   -1.5758567   -5.8327954 
C     4.4038042   -1.5672144   -5.5640966 
C     5.4751847   -2.6368101   -7.6192858 
H     6.3312589   -3.2429238   -7.9632533 
H     4.5425699   -3.1838578   -7.8235090 
H     5.4677842   -1.6906683   -8.1875462 
H     4.5421437   -1.3685658   -4.4878379 
H     4.3078631   -0.5998503   -6.0865084 
H     3.4787313   -2.1456063   -5.7020069 
H     7.0341113   -1.4186979   -4.7470014 
H     6.9001604   -0.5928667   -6.3330438 
H     7.7839557   -2.1477141   -6.2035409 
H     4.5749324   -1.7755882   -0.9755059 
H     3.1677004    0.3400362   -0.9884344 
H     0.5520665   -1.6281945   -3.8317316 
C    -0.5245131   -2.1102349   -0.5478039 
C     0.5659616   -3.0119312   -0.1377513 
N     0.6425039   -4.2076463   -0.8729072 
C    -0.1041534   -4.5776176   -1.9801007 
N    -1.1145865   -3.6681578   -2.2807087 
C    -1.3166505   -2.4965558   -1.6046679 
H    -2.1341534   -1.8803321   -1.9872475 
H    -1.7041490   -3.9018266   -3.0810038 
H     1.4065747   -4.8424986   -0.6281597 
O     0.1016845   -5.5968192   -2.6333748 
O     1.3792478   -2.7876216    0.7607625 
C    -0.6585926   -0.8469799    0.1819144 
C    -1.6710725    0.0476939    0.1145446 
H     0.1761931   -0.6535580    0.8672340 
H    -2.5530246   -0.0884243   -0.5226100 
H    -1.6473482    0.9516797    0.7315714 
