72
Energy = -1982.797355619
C     3.2314521   -0.8036610   -0.5156498 
C     2.3237915   -1.7579759   -1.0066145 
N     1.2265688   -1.4267996   -1.7194108 
C     0.9556726   -0.1319126   -1.9037375 
C     1.7484398    0.9074588   -1.3663502 
C     2.9296680    0.5476677   -0.6811110 
H     3.5709889    1.3274794   -0.2613828 
H     4.1141379   -1.1376635    0.0354065 
C     1.2949207    2.2979946   -1.4089214 
N     2.0981238    3.2661792   -0.8514983 
N     1.5869797    4.4373425   -0.6646094 
C     0.2149039    4.5408419   -0.9539010 
N    -0.1911389    3.8763265   -2.1237546 
N     0.3207001    2.6977459   -2.2895487 
C    -0.3784045    5.9084943   -0.7320992 
N     0.1889462    6.6491909    0.2352698 
N    -1.4468858    6.2435229   -1.4725968 
C    -1.9720387    7.4603306   -1.2432333 
C    -1.4443645    8.3325812   -0.2829909 
C    -0.3465731    7.8627441    0.4499879 
H     0.1123051    8.4730637    1.2385240 
H    -2.8461173    7.7414368   -1.8447775 
H    -1.8764389    9.3209011   -0.1030784 
C     2.5130142   -3.2109554   -0.6422351 
N     1.4251133   -3.9799028   -0.8727821 
O     3.5687301   -3.6225223   -0.1308894 
C     1.3140935   -5.3347201   -0.3580339 
H     0.5517978   -3.5052340   -1.1331300 
C     0.1898161   -6.1189786   -1.0547717 
H     2.2784305   -5.8414510   -0.5298368 
H     1.1387341   -5.3223998    0.7365830 
N    -1.1397704   -5.9807801   -0.4558142 
H     0.1626385   -5.8399968   -2.1257861 
H     0.4251430   -7.1916523   -0.9995832 
C    -1.8616003   -4.8316906   -0.4137462 
H    -1.6430880   -6.8364972   -0.2255234 
O    -1.4138084   -3.7124299   -0.7092307 
O    -3.1247404   -5.0928805   -0.0138118 
C    -4.1357893   -4.0331737    0.2386803 
C    -4.3204525   -3.1483905   -1.0018650 
C    -5.3998182   -4.8580472    0.5094315 
C    -3.7230062   -3.2379265    1.4825021 
H    -2.8044275   -2.6587456    1.3061829 
H    -4.5285039   -2.5328861    1.7508609 
H    -3.5584776   -3.9207468    2.3335275 
H    -5.6608393   -5.4633974   -0.3752853 
H    -5.2422668   -5.5337255    1.3671669 
H    -6.2429600   -4.1852678    0.7390666 
H    -4.5224052   -3.7738941   -1.8884766 
H    -5.1874602   -2.4847383   -0.8409388 
H    -3.4295255   -2.5338441   -1.1950778 
C    -0.6673568    3.5858943    0.5336308 
C    -0.3249929    2.2190178    0.6162003 
C     0.5995493    1.6281174    1.5378438 
C     1.5564656    2.3235112    2.3020568 
N     2.3487441    1.4358728    2.9638399 
C     1.9524135    0.1413019    2.6747824 
C     0.8446480    0.2157023    1.7949496 
C     0.2953934   -1.0495837    1.4213316 
N    -0.8110013   -1.2077657    0.6559642 
N     0.8955064   -2.1835685    1.8655302 
C     1.9709145   -2.0859071    2.6612148 
N     2.5540880   -0.9696418    3.1294532 
H    -1.6698106    3.8043106    0.1513749 
H    -0.3235941    4.2563251    1.3291578 
H    -0.9200393    1.5355753    0.0014408 
H     1.7346395    3.3954307    2.3822191 
H     3.1316055    1.6815486    3.5702141 
H    -1.2456009   -0.4089914    0.2064315 
H    -1.0004098   -2.1344205    0.2477759 
H     2.4287946   -3.0375462    2.9621554 
H     0.0491097    0.1122287   -2.4716650 
