72
Energy = -1982.800777250
C     1.9550655   -1.5015256    0.0700391 
C     0.7886366   -2.1882401    0.4448576 
N    -0.4467147   -1.6587841    0.3245776 
C    -0.5570120   -0.4116853   -0.1361957 
C     0.5571790    0.3844490   -0.4999075 
C     1.8394625   -0.1929829   -0.4018148 
H     2.7235148    0.3897030   -0.6766133 
H     2.9237668   -1.9950416    0.1794184 
C     0.3569617    1.7848309   -0.8737503 
N     1.3911754    2.5290751   -1.3829434 
N     1.2125069    3.8062440   -1.4993132 
C     0.0143005    4.2936919   -0.9426769 
N    -1.1163422    3.5032571   -1.1918297 
N    -0.9281621    2.2290873   -1.0942454 
C    -0.1807410    5.7833179   -1.0601913 
N     0.9369817    6.5275557   -1.0013130 
N    -1.4397622    6.2381511   -1.1593513 
C    -1.5850292    7.5726938   -1.2423782 
C    -0.4905187    8.4462530   -1.2218555 
C     0.7743341    7.8585309   -1.0884501 
H     1.6832639    8.4719940   -1.0413108 
H    -2.6117172    7.9525846   -1.3232184 
H    -0.6173268    9.5302404   -1.2905460 
C     0.8883098   -3.5834146    1.0056299 
N    -0.3039321   -4.0942485    1.4106299 
O     1.9732338   -4.1811304    1.0841126 
C    -0.4637175   -5.4866012    1.7850036 
H    -1.1184609   -3.5091123    1.2018720 
C    -0.9543304   -6.3452848    0.5941203 
H    -1.1770865   -5.5724550    2.6224616 
H     0.5224920   -5.8420302    2.1258076 
N    -0.1692815   -6.1120468   -0.6095025 
H    -1.9983532   -6.0953787    0.3472483 
H    -0.9086519   -7.4127079    0.8712938 
C    -0.5674770   -5.1787645   -1.5327651 
H     0.8334112   -6.2994900   -0.5686790 
O    -1.7046906   -4.7148402   -1.6077169 
O     0.4706720   -4.8753262   -2.3526862 
C     0.2896881   -4.0050469   -3.5393403 
C    -0.7390607   -4.6342668   -4.4892098 
C     1.6898660   -4.0089443   -4.1631713 
C    -0.1072420   -2.5898773   -3.0979404 
H    -1.0746216   -2.5990923   -2.5754830 
H    -0.1805040   -1.9376671   -3.9852748 
H     0.6576061   -2.1724918   -2.4224458 
H     1.9843399   -5.0337990   -4.4471792 
H     2.4286133   -3.6153778   -3.4441425 
H     1.7012480   -3.3743850   -5.0653879 
H    -0.4495539   -5.6719656   -4.7300217 
H    -0.7734503   -4.0552940   -5.4282144 
H    -1.7414852   -4.6370919   -4.0350328 
C     0.2728285    4.1800671    1.0206784 
C     0.4729686    2.8624646    1.4813213 
C    -0.5087053    2.0236940    2.1029222 
C    -1.9022521    2.2291179    2.1026412 
N    -2.5244152    1.1522165    2.6588334 
C    -1.5862597    0.2089582    3.0427626 
C    -0.3074006    0.7271078    2.7295735 
C     0.7844264   -0.1173629    3.0931496 
N     2.0842406    0.2250466    2.9402762 
N     0.5244964   -1.3457221    3.6054599 
C    -0.7531414   -1.7122154    3.8007774 
N    -1.8636792   -0.9928516    3.5742811 
H     1.1571973    4.8242295    0.9830225 
H    -0.6554608    4.6896370    1.3028452 
H     1.5030742    2.4922146    1.4646048 
H    -2.4821076    3.0631130    1.7085963 
H    -3.5336763    1.0424024    2.7603014 
H     2.3693451    1.1776347    2.7396981 
H     2.7984321   -0.4238991    3.2643949 
H    -0.9019262   -2.7232074    4.2030457 
H    -1.5673536    0.0050629   -0.2164319 
