72
Energy = -1982.812586721
C     3.0866773   -2.9290443   -0.9383126 
C     2.3283240   -4.1115072   -0.9737495 
N     1.0299339   -4.1456160   -1.3368662 
C     0.4308415   -2.9955026   -1.6537620 
C     1.0967714   -1.7486945   -1.6251543 
C     2.4600834   -1.7266673   -1.2649212 
H     3.0005236   -0.7774701   -1.2323643 
H     4.1361934   -2.9762232   -0.6406296 
C     0.3590436   -0.5101805   -1.8953594 
N     0.9724689    0.6798445   -1.6530427 
N     0.2155274    1.7519350   -1.6074790 
C    -1.1109943    1.5993678   -1.8373566 
N    -1.6077552    0.5151765   -2.4758652 
N    -0.8585112   -0.5705801   -2.4843470 
C    -2.0276693    2.7265556   -1.5147866 
N    -1.4715501    3.8268271   -0.9768268 
N    -3.3360304    2.5230650   -1.7541736 
C    -4.1626250    3.5326549   -1.4364141 
C    -3.6948484    4.7320651   -0.8818275 
C    -2.3129845    4.8257137   -0.6647115 
H    -1.8684755    5.7269598   -0.2237540 
H    -5.2318155    3.3746854   -1.6263470 
H    -4.3739275    5.5490999   -0.6231798 
C     2.9830806   -5.4234430   -0.6144041 
N     2.1455544   -6.4885452   -0.6754664 
O     4.1819762   -5.4827073   -0.3011736 
C     2.6246350   -7.8541281   -0.5738242 
H     1.2017621   -6.2851083   -1.0160236 
C     2.8939371   -8.4684518   -1.9695344 
H     1.8889551   -8.4718832   -0.0315702 
H     3.5584903   -7.8236481    0.0109610 
N     3.6894901   -7.5850351   -2.8103316 
H     1.9449071   -8.6449520   -2.5000581 
H     3.4093744   -9.4367951   -1.8475242 
C     3.0817137   -6.7083911   -3.6729543 
H     4.6092523   -7.3043298   -2.4672272 
O     1.9173048   -6.8050313   -4.0589529 
O     3.9651737   -5.7472292   -4.0443765 
C     3.6392937   -4.7648349   -5.1062049 
C     3.3499922   -5.5045997   -6.4194579 
C     4.9338446   -3.9499744   -5.2035230 
C     2.4682897   -3.8769661   -4.6634758 
H     1.5573174   -4.4740431   -4.5138240 
H     2.2776515   -3.1119578   -5.4357844 
H     2.7168581   -3.3620002   -3.7212149 
H     5.7794069   -4.5993822   -5.4878061 
H     5.1612983   -3.4792446   -4.2317535 
H     4.8241895   -3.1580932   -5.9634961 
H     4.1890329   -6.1764281   -6.6707177 
H     3.2339346   -4.7713131   -7.2360870 
H     2.4261945   -6.0975526   -6.3390909 
C    -1.5282254    0.5930609    0.9142969 
C    -0.8560617   -0.5817216    0.9914855 
C     0.5167149   -0.7759650    1.4488667 
C     1.5100048    0.2031420    1.5372445 
N     2.6993426   -0.3703553    1.9249171 
C     2.5280519   -1.7254524    2.0864803 
C     1.1677525   -2.0217599    1.8065973 
C     0.8242479   -3.4021182    1.9236893 
N    -0.4246869   -3.8841639    1.7101218 
N     1.7879717   -4.3034792    2.2353049 
C     3.0426576   -3.8654660    2.4493979 
N     3.4960326   -2.6050829    2.4118695 
H    -2.5520056    0.6256607    0.5288318 
H    -1.0897727    1.5418713    1.2449434 
H    -1.3822165   -1.4865907    0.6590688 
H     1.4578154    1.2688256    1.3178129 
H     3.5835534    0.1229692    2.0400800 
H    -1.2317731   -3.2703983    1.6684878 
H    -0.5922400   -4.8758425    1.8669233 
H     3.7832511   -4.6432625    2.6782310 
H    -0.6285466   -3.0433070   -1.9309841 
