68
Energy = -1946.360934679
N     2.4113713   -2.9520214   -2.6930745 
C     3.6198748   -2.8297184   -2.1066179 
C     4.0822204   -1.6316919   -1.5371365 
C     3.2406968   -0.5195055   -1.5582227 
C     1.9757409   -0.6348660   -2.1735145 
C     1.6148342   -1.8806777   -2.7377925 
C     1.0419743    0.5001180   -2.2102724 
N    -0.0267944    0.4486423   -3.0402459 
N    -0.9469118    1.3875956   -2.9243957 
C    -0.7633505    2.3302414   -1.9750041 
N     0.4290134    2.5387013   -1.3654543 
N     1.3476865    1.6073525   -1.4863284 
C    -1.8935648    3.2447120   -1.6490936 
N    -3.0622985    3.0014368   -2.2687501 
N    -1.6510248    4.2036451   -0.7377241 
C    -2.6845313    5.0024528   -0.4268319 
C    -3.9484274    4.8477994   -1.0134757 
C    -4.0851206    3.8095320   -1.9455014 
H    -5.0437081    3.6172761   -2.4437843 
H    -2.4968286    5.7872012    0.3168818 
H    -4.7866150    5.4996880   -0.7525135 
C     4.5120048   -4.0494183   -2.0873964 
N     3.9212745   -5.1658211   -2.5868238 
O     5.6684629   -3.9956513   -1.6449107 
C     4.6765826   -6.3703139   -2.8848188 
H     2.9973304   -5.0196798   -3.0050753 
C     5.1149449   -6.4117879   -4.3687351 
H     4.0692901   -7.2617396   -2.6534316 
H     5.5611255   -6.3660668   -2.2275193 
N     5.7613419   -5.1776282   -4.7882275 
H     5.8001915   -7.2636045   -4.5199984 
H     4.2381847   -6.5517321   -5.0207864 
C     5.0415641   -4.1687676   -5.3744310 
H     6.6267128   -4.9034937   -4.3219001 
O     3.9131799   -4.3024292   -5.8468368 
O     5.7714166   -3.0242197   -5.3688965 
C     5.3052847   -1.8063515   -6.0746455 
C     6.4609386   -0.8281871   -5.8353757 
C     4.0108852   -1.2893798   -5.4325593 
C     5.1379847   -2.1087620   -7.5701287 
H     6.0712953   -2.5331870   -7.9791071 
H     4.3157956   -2.8213358   -7.7360466 
H     4.9143729   -1.1729067   -8.1107061 
H     4.1726547   -1.0913269   -4.3600457 
H     3.7134591   -0.3439760   -5.9179030 
H     3.1986781   -2.0224617   -5.5411995 
H     6.6098879   -0.6704781   -4.7533938 
H     6.2350672    0.1431906   -6.3066527 
H     7.3968413   -1.2223396   -6.2669499 
H     5.0730376   -1.6027577   -1.0790136 
H     3.5479969    0.4317701   -1.1164264 
H     0.6365701   -2.0037202   -3.2144597 
C     0.1404289   -0.9949867    0.6120241 
C     0.3666038   -2.3810076    0.1728434 
N     1.6141612   -2.9146835    0.5391902 
C     2.6335417   -2.3012021    1.2520824 
N     2.3251801   -0.9917714    1.6150469 
C     1.1437739   -0.3711049    1.3174733 
H     1.0644405    0.6593598    1.6725557 
H     3.0414870   -0.4935963    2.1453397 
H     1.7970482   -3.8768107    0.2445173 
O     3.6992806   -2.8423015    1.5233714 
O    -0.4280417   -3.0638278   -0.4774509 
C    -1.1398770   -0.3803292    0.2480803 
C    -1.6038871    0.8392823    0.5996043 
H    -1.7661742   -1.0279601   -0.3778401 
H    -1.0397650    1.5408309    1.2257224 
H    -2.5906949    1.1698087    0.2597733 
