72
Energy = -1982.812008365
C     1.1702109   -6.4521305    8.2589181 
C     0.8801250   -7.0199508    7.0087363 
N     0.2152041   -6.3643171    6.0328192 
C    -0.2140647   -5.1258876    6.2824653 
C    -0.0131189   -4.4815592    7.5261440 
C     0.7104341   -5.1610778    8.5254509 
H     0.8947084   -4.6839413    9.4913690 
H     1.7208131   -7.0351625    9.0001101 
C    -0.6088394   -3.1630900    7.7661650 
N    -0.8315453   -2.7732618    9.0452967 
N    -1.5466628   -1.6878353    9.2534458 
C    -2.0599552   -1.0699652    8.1621547 
N    -1.5922542   -1.2858636    6.9126118 
N    -0.8304018   -2.3392349    6.7086870 
C    -3.1034069   -0.0275135    8.3656994 
N    -3.6794478    0.0037016    9.5812613 
N    -3.3979225    0.7578509    7.3147008 
C    -4.3585454    1.6754600    7.5122795 
C    -5.0215759    1.8087373    8.7402819 
C    -4.6380238    0.9272087    9.7604973 
H    -5.1168289    0.9582989   10.7472876 
H    -4.6065059    2.3224822    6.6613768 
H    -5.8040747    2.5572093    8.8921569 
C     1.2738640   -8.4500574    6.7332947 
N     0.8763022   -8.9110765    5.5303958 
O     1.8893769   -9.1262450    7.5818369 
C     1.0889522  -10.2810149    5.0712779 
H     0.3308646   -8.2529474    4.9670595 
C     0.0778751  -11.2838229    5.6405097 
H     1.0158426  -10.2781954    3.9734488 
H     2.1133913  -10.5868050    5.3493215 
N     0.3308314  -11.5075363    7.0613884 
H    -0.9508879  -10.9040601    5.4891850 
H     0.1677221  -12.2376048    5.0889263 
C    -0.5076672  -12.2822782    7.7966790 
H     0.9403334  -10.8324200    7.5419258 
O    -1.3912736  -12.9969342    7.3198244 
O    -0.2136794  -12.1585127    9.1240675 
C    -0.9743694  -12.8968443   10.1563183 
C    -0.3189248  -12.4131480   11.4555872 
C    -2.4561539  -12.4947265   10.1109513 
C    -0.7711868  -14.4061691    9.9633692 
H     0.3062974  -14.6460028    9.9547615 
H    -1.2435491  -14.9526217   10.7979850 
H    -1.2211601  -14.7404122    9.0162406 
H    -2.5601081  -11.4008748   10.2113986 
H    -2.9184155  -12.8120849    9.1645260 
H    -2.9895163  -12.9730197   10.9506291 
H    -0.4386763  -11.3213268   11.5643572 
H    -0.7906898  -12.9068925   12.3218782 
H     0.7584115  -12.6513987   11.4553979 
C    -4.1794935   -3.2692372    7.5119242 
C    -3.6905653   -4.3119173    8.2245046 
C    -3.2145189   -5.5912078    7.7028096 
C    -3.4474843   -6.1241007    6.4325033 
N    -2.8999705   -7.3842199    6.3437049 
C    -2.3032891   -7.7141928    7.5368631 
C    -2.4653764   -6.6087095    8.4148840 
C    -1.8288603   -6.7585998    9.6805632 
N    -1.7998205   -5.7723675   10.6263360 
N    -1.2223280   -7.9285084    9.9875436 
C    -1.1904157   -8.9070736    9.0599720 
H    -4.5893446   -2.3934377    8.0242593 
H    -4.2140095   -3.2692115    6.4160128 
H    -3.6814098   -4.2175335    9.3186938 
H    -3.9955493   -5.7026887    5.5902359 
H    -2.9450115   -7.9919272    5.5272860 
H    -1.8824221   -4.8003535   10.3316033 
H    -1.1701020   -5.9292682   11.4136012 
H    -0.6848388   -9.8337387    9.3555930 
N    -1.6824881   -8.8761721    7.8141315 
H    -0.7692600   -4.6177694    5.4857180 
