72
Energy = -1982.804717164
C     1.6018431   -6.1346884    8.0169250 
C     1.1478602   -6.8272795    6.8788298 
N     0.4853785   -6.2389347    5.8607637 
C     0.1538976   -4.9525777    5.9955574 
C     0.4050166   -4.2159413    7.1781727 
C     1.1950172   -4.8101061    8.1806545 
H     1.4132599   -4.2637056    9.1023200 
H     2.1298933   -6.6601250    8.8182969 
C    -0.3032301   -2.9586018    7.4259214 
N    -0.2636012   -2.4323655    8.6713313 
N    -1.2241398   -1.5902706    9.0082310 
C    -2.1526302   -1.3035858    8.0689197 
N    -1.9295281   -1.4936873    6.7524307 
N    -0.9797037   -2.3485604    6.4189703 
C    -3.4330319   -0.7047655    8.5226172 
N    -3.8642502   -1.1470545    9.7201170 
N    -4.0598546    0.1621250    7.7133731 
C    -5.2292796    0.6490912    8.1652919 
C    -5.7701641    0.2691844    9.4019545 
C    -5.0376000   -0.6574323   10.1550822 
H    -5.4000250   -1.0251810   11.1223783 
H    -5.7507142    1.3626402    7.5153447 
H    -6.7236944    0.6685652    9.7574366 
C     1.1286527   -8.3359667    6.8854070 
N     2.2648895   -8.9616145    7.2667113 
O     0.0615846   -8.9244491    6.6264460 
C     2.3098820  -10.3585497    7.6855806 
H     3.0929374   -8.3913733    7.4391625 
C     2.3994928  -10.4693818    9.2205865 
H     1.3883849  -10.8419255    7.3260189 
H     3.1748546  -10.8539349    7.2116608 
N     3.6125305   -9.8633709    9.7520196 
H     1.5445188   -9.9455569    9.6777885 
H     2.3640364  -11.5345381    9.5087043 
C     3.6292123   -8.6463960   10.3721920 
H     4.5084063  -10.3243020    9.5943666 
O     2.6296553   -7.9671852   10.6099246 
O     4.9081232   -8.3063734   10.6789889 
C     5.2159410   -7.0419843   11.3909557 
C     6.7460549   -7.0834729   11.4783391 
C     4.7479174   -5.8380558   10.5595308 
C     4.5807839   -7.0706522   12.7876221 
H     4.9104188   -7.9685934   13.3383706 
H     4.8982825   -6.1780153   13.3538021 
H     3.4825086   -7.0745128   12.7150420 
H     3.6502140   -5.7673163   10.5493522 
H     5.1601454   -4.9122154   10.9963742 
H     5.1140941   -5.9258965    9.5219373 
H     7.0755215   -7.9847639   12.0229141 
H     7.1891018   -7.0995799   10.4678841 
H     7.1161465   -6.1922771   12.0124575 
C    -4.4869053   -3.4485260    6.7695829 
C    -4.0535917   -3.9935461    7.9287602 
C    -3.0951610   -5.0874555    8.0729645 
C    -2.8278882   -6.0988418    7.1429161 
N    -1.9303646   -7.0005287    7.6662485 
C    -1.5633612   -6.5917373    8.9260555 
C    -2.2679484   -5.3909759    9.2239773 
C    -1.9349034   -4.8009143   10.4822512 
N    -2.5021612   -3.6697372   10.9799780 
N    -1.0084654   -5.4105505   11.2699545 
C    -0.4475592   -6.5623682   10.8551148 
H    -5.2365708   -2.6500490    6.7681061 
H    -4.1028827   -3.7741966    5.7953690 
H    -4.4521057   -3.5894361    8.8685332 
H    -3.2530702   -6.2542745    6.1514867 
H    -1.4672165   -7.7804341    7.1718595 
H    -2.9779418   -2.9705722   10.3966967 
H    -2.0594015   -3.2940283   11.8187543 
H     0.3021342   -7.0049105   11.5237891 
N    -0.6716667   -7.2221376    9.7108176 
H    -0.3934396   -4.4874288    5.1672343 
