72
Energy = -1982.797615398
C     1.9902711   -3.4358945    1.3203284 
C     1.6974348   -4.0000317    0.0685759 
N     1.4910292   -3.2601358   -1.0397199 
C     1.5571970   -1.9280432   -0.9350796 
C     1.8293952   -1.2630389    0.2791282 
C     2.0538988   -2.0433770    1.4272434 
H     2.2706897   -1.5589500    2.3833836 
H     2.1476568   -4.0913331    2.1806648 
C     1.8281952    0.2300111    0.3403641 
N     2.4716389    0.7920810    1.4620932 
N     2.4675082    2.0838463    1.5100008 
C     1.9760582    2.7521025    0.4172724 
N     2.1245782    2.1734374   -0.8212159 
N     2.1049593    0.8843706   -0.8770559 
C     1.7185932    4.2046710    0.4968560 
N     1.6173984    4.7342324    1.7322145 
N     1.5367948    4.8569577   -0.6695213 
C     1.2295777    6.1604146   -0.5807255 
C     1.1007915    6.8171358    0.6502206 
C     1.3127183    6.0395419    1.7974207 
H     1.2221443    6.4758996    2.8003148 
H     1.0681924    6.6941731   -1.5261411 
H     0.8376795    7.8761422    0.7133644 
C     1.5590612   -5.4991455   -0.0582560 
N     1.2665621   -5.9196261   -1.3160565 
O     1.7013374   -6.2489143    0.9202780 
C     0.8710231   -7.2870583   -1.6022074 
H     1.1003873   -5.1748182   -1.9992716 
C    -0.6688496   -7.4446358   -1.6101272 
H     1.2805559   -7.6011136   -2.5772703 
H     1.3112148   -7.9205798   -0.8150349 
N    -1.2834043   -6.8649841   -0.4247673 
H    -1.1018535   -6.9266111   -2.4805094 
H    -0.9247781   -8.5159615   -1.6802225 
C    -1.7481470   -5.5752769   -0.4334026 
H    -1.0105188   -7.2364778    0.4859372 
O    -1.9854172   -4.9262359   -1.4515287 
O    -1.9223577   -5.1442049    0.8421426 
C    -2.5985543   -3.8595384    1.1373391 
C    -4.0250383   -3.8864461    0.5720795 
C    -2.6109273   -3.8414469    2.6699996 
C    -1.7737188   -2.6879465    0.5877094 
H    -1.7049374   -2.7337358   -0.5088136 
H    -2.2533197   -1.7386722    0.8817802 
H    -0.7556741   -2.7087896    1.0099623 
H    -3.1745994   -4.7049653    3.0622837 
H    -1.5796593   -3.8862434    3.0598972 
H    -3.0859398   -2.9139823    3.0317760 
H    -4.5653456   -4.7733181    0.9459847 
H    -4.5673378   -2.9832412    0.9008759 
H    -4.0097731   -3.9118491   -0.5281223 
C    -0.0939758    0.5876700    0.6385405 
C    -0.4177950    1.9632157    0.6807687 
C    -0.9864376    2.7159412   -0.3978067 
C    -0.9890544    2.3355991   -1.7536785 
N    -1.4682666    3.3552299   -2.5156761 
C    -1.7988982    4.4314511   -1.7104325 
C    -1.5277774    4.0644599   -0.3707893 
C    -1.8637623    5.0555965    0.5990156 
N    -1.7443018    4.8771938    1.9341664 
N    -2.3194534    6.2626408    0.1769506 
C    -2.4856242    6.4714700   -1.1396143 
N    -2.2719660    5.6100980   -2.1472864 
H    -0.1133966    0.0577996    1.5957508 
H    -0.4700215    0.0014074   -0.2064797 
H    -0.3482433    2.4546226    1.6566030 
H    -0.6417457    1.4130601   -2.2175643 
H    -1.5562294    3.3412810   -3.5320326 
H    -1.5436306    3.9708188    2.3426711 
H    -2.0532296    5.6209136    2.5567249 
H    -2.8487329    7.4692216   -1.4219726 
H     1.3869125   -1.3484396   -1.8501145 
