72
Energy = -1982.801465866
C     3.4899121   -0.4605872   -0.6705056 
C     2.6383584   -1.4829304   -1.1197940 
N     1.4290129   -1.2402353   -1.6683403 
C     1.0005624    0.0197403   -1.7314558 
C     1.7448915    1.1160845   -1.2302680 
C     3.0309954    0.8596764   -0.7140541 
H     3.6373832    1.6798255   -0.3189952 
H     4.4624489   -0.7201212   -0.2449857 
C     1.0879557    2.4188528   -1.1481044 
N     1.7547724    3.5498925   -0.7477498 
N     1.0372658    4.5877241   -0.4521383 
C    -0.3574019    4.3756385   -0.4625224 
N    -0.8251388    3.6092100   -1.5365594 
N    -0.1041787    2.5758874   -1.8185530 
C    -1.1690564    5.5974669   -0.1159775 
N    -0.7339280    6.2964165    0.9472162 
N    -2.2429785    5.8766137   -0.8698922 
C    -2.9347700    6.9804871   -0.5316431 
C    -2.5600011    7.7991236    0.5405987 
C    -1.4295616    7.4001637    1.2663494 
H    -1.0768805    7.9751348    2.1319879 
H    -3.8171914    7.2140879   -1.1411985 
H    -3.1264159    8.6961931    0.8055247 
C     2.9872475   -2.9359650   -0.8939905 
N     2.0161288   -3.7814065   -1.3168790 
O     4.0268612   -3.2887965   -0.3174807 
C     1.9136262   -5.1641336   -0.8741065 
H     1.1862707   -3.3074873   -1.6919355 
C     0.4634288   -5.6460763   -0.9652902 
H     2.5464607   -5.8315806   -1.4876752 
H     2.2928602   -5.2275509    0.1632518 
N    -0.4472518   -4.7286504   -0.2821266 
H     0.1440722   -5.7198371   -2.0191702 
H     0.4054286   -6.6642375   -0.5354258 
C    -1.7499922   -4.6552990   -0.6481397 
H    -0.0947926   -4.1534494    0.5114255 
O    -2.2788595   -5.3368940   -1.5238003 
O    -2.4083856   -3.6890134    0.0885783 
C    -3.9014201   -3.6351192    0.1019277 
C    -4.4576840   -4.9979783    0.5337115 
C    -4.1992791   -2.5736528    1.1679356 
C    -4.4082922   -3.1905090   -1.2755114 
H    -4.1826491   -3.9504931   -2.0377236 
H    -5.4998385   -3.0331839   -1.2310093 
H    -3.9326155   -2.2373538   -1.5659858 
H    -3.7211639   -2.8399100    2.1255865 
H    -3.8440863   -1.5766453    0.8549960 
H    -5.2887871   -2.5059597    1.3231129 
H    -4.0170438   -5.2997780    1.4995524 
H    -5.5508993   -4.9179021    0.6593618 
H    -4.2433340   -5.7712001   -0.2187176 
C    -0.7476540    3.2180929    1.1182392 
C     0.1575529    2.1494703    1.2662966 
C    -0.0847065    0.7360723    1.2033565 
C    -1.1871973    0.0632796    0.6404409 
N    -0.9985992   -1.2866001    0.7273779 
C     0.8167841   -0.3124823    1.6594179 
C     2.0711459   -0.4219896    2.3335940 
N     2.8136504    0.6371316    2.7301739 
N     2.5895936   -1.6536451    2.5691964 
C     1.9024259   -2.7388317    2.1861690 
N     0.7037016   -2.7766552    1.5824698 
H    -0.5579690    4.0832200    1.7633114 
H    -1.8052986    2.9989318    0.9293102 
H     1.1506691    2.4368481    1.6285399 
H    -2.0780134    0.4750435    0.1660331 
H    -1.6217100   -2.0402240    0.3882453 
H     2.4160344    1.5687356    2.7971862 
H     3.6529758    0.4531759    3.2778608 
H     2.3741246   -3.7081565    2.3902803 
C     0.2075560   -1.5469331    1.3417443 
H     0.0133529    0.1914157   -2.1734215 
