72
Energy = -1982.777846411
C     1.2716447    1.3920044   -0.6578498 
C     1.3573704    1.4454566   -2.0646847 
N     0.3051881    1.7654204   -2.8490495 
C    -0.8779516    1.9586173   -2.2635124 
C    -1.1040827    1.7959556   -0.8702516 
C     0.0202776    1.5379468   -0.0574307 
H    -0.1046409    1.4109150    1.0222563 
H     2.1529726    1.1491257   -0.0552826 
C    -2.4628787    1.7270678   -0.3658399 
N    -2.7319645    1.4843014    0.9607610 
N    -3.9196576    1.0661749    1.2618406 
C    -4.7152484    0.7077396    0.1387548 
N    -4.6909899    1.6989890   -0.8658060 
N    -3.5012521    2.1222487   -1.1641645 
C    -6.0863080    0.2221062    0.5397595 
N    -6.1007574   -0.6868515    1.5325438 
N    -7.1525417    0.7015562   -0.1176813 
C    -8.3530767    0.2364967    0.2766499 
C    -8.4919781   -0.6918513    1.3148145 
C    -7.3067595   -1.1342895    1.9183380 
H    -7.3244450   -1.8749088    2.7283949 
H    -9.2301375    0.6215039   -0.2597560 
H    -9.4716118   -1.0617450    1.6301466 
C     2.5816758    0.9472459   -2.8029879 
N     3.7804962    1.2607682   -2.2558098 
O     2.4412526    0.2546700   -3.8275878 
C     5.0052745    0.5634691   -2.6393295 
H     3.8012274    1.6264630   -1.2959468 
C     5.1871008   -0.7787557   -1.9088582 
H     4.9392791    0.3489898   -3.7173153 
H     5.8660118    1.2297191   -2.4641883 
N     5.6654556   -0.7129256   -0.5191052 
H     4.2301271   -1.3327795   -1.9558129 
H     5.9486322   -1.3607802   -2.4515203 
C     5.1270733    0.0075600    0.5053972 
H     6.2310060   -1.5067688   -0.2179974 
O     4.3963124    1.0002331    0.3913430 
O     5.5307488   -0.5104272    1.6890463 
C     5.2315841    0.1626179    2.9811458 
C     5.8856271   -0.7855609    3.9925984 
C     5.9006090    1.5430046    3.0017476 
C     3.7146132    0.2382377    3.2055327 
H     3.2470355   -0.7479015    3.0457561 
H     3.5227537    0.5571623    4.2449196 
H     3.2468552    0.9610414    2.5209034 
H     5.4488582    2.2081856    2.2498254 
H     5.7718194    1.9968100    3.9994863 
H     6.9813620    1.4480942    2.7986393 
H     5.4225571   -1.7854881    3.9361416 
H     6.9653479   -0.8832750    3.7875311 
H     5.7535168   -0.3921806    5.0144706 
C    -3.9456711   -0.8556630   -0.7394590 
C    -2.6921401   -1.2249274   -0.1867867 
C    -1.4147710   -1.3283120   -0.7830522 
C    -1.0700815   -1.1511362   -2.1483900 
N     0.2543652   -1.3799434   -2.3220858 
C     0.8432297   -1.7093578   -1.1059502 
C    -0.1609918   -1.6649612   -0.1158518 
C     0.3106007   -1.8180531    1.2198723 
N    -0.4711200   -1.6723479    2.3187029 
N     1.6167297   -2.1240638    1.4237982 
C     2.4397665   -2.2005333    0.3679274 
H    -4.7642718   -1.4999048   -0.3984152 
H    -3.9921342   -0.6092983   -1.8078898 
H    -2.7403560   -1.5205434    0.8689809 
H    -1.7070447   -0.8938816   -2.9938807 
H     0.7841689   -1.2098767   -3.1854624 
H    -1.3584493   -1.1793979    2.2630911 
H    -0.0095452   -1.6682731    3.2276933 
H     3.4848242   -2.4500751    0.5916044 
N     2.1432872   -1.9782690   -0.9239477 
H    -1.7212127    2.2158136   -2.9164909 
