72
Energy = -1982.789153617
C     1.1200082   -1.2510422    2.5501186 
C     1.5644498   -2.3173725    1.7544253 
N     2.2372816   -2.1379337    0.5990031 
C     2.3736939   -0.8918859    0.1312358 
C     1.8068130    0.2289270    0.7717379 
C     1.2366440    0.0465458    2.0439443 
H     0.8370508    0.9076144    2.5855620 
H     0.6252646   -1.4585327    3.5023883 
C     1.6248262    1.5202778    0.0340226 
N     1.2409694    2.6079840    0.8632498 
N     1.0879511    3.7391271    0.2311919 
C     1.5115977    3.8224616   -1.0550426 
N     2.5337194    3.0058691   -1.4670795 
N     2.6773426    1.8707464   -0.8628059 
C     1.0680660    4.9507562   -1.8924102 
N    -0.0236184    5.6190683   -1.4581066 
N     1.7427516    5.1891442   -3.0368570 
C     1.2944826    6.2040701   -3.7923655 
C     0.1857658    6.9807029   -3.4273227 
C    -0.4506163    6.6315200   -2.2276388 
H    -1.3368546    7.1774096   -1.8781152 
H     1.8396121    6.4024331   -4.7246911 
H    -0.1712323    7.8053098   -4.0504804 
C     1.1341573   -3.7202228    2.0975589 
N     1.5137352   -4.6583263    1.1926088 
O     0.4165890   -3.9603640    3.0831007 
C     0.8342242   -5.9440360    1.1210402 
H     2.0010538   -4.2890553    0.3708305 
C    -0.5441623   -5.8165236    0.4376576 
H     0.6888574   -6.3182011    2.1477654 
H     1.4739575   -6.6545723    0.5731239 
N    -0.4587960   -5.4053768   -0.9566263 
H    -1.1513292   -5.0740183    0.9793975 
H    -1.0686576   -6.7855981    0.4835220 
C    -0.5240396   -4.1179093   -1.3909326 
H    -0.2599212   -6.1138825   -1.6624134 
O    -0.6880490   -3.1281335   -0.6665505 
O    -0.3987511   -4.0919557   -2.7396492 
C    -0.2960079   -2.8240992   -3.5012890 
C    -1.5864908   -2.0086263   -3.3445411 
C    -0.1355817   -3.3178669   -4.9433424 
C     0.9532632   -2.0663816   -3.0378647 
H     0.8598544   -1.7748046   -1.9825287 
H     1.0906965   -1.1624998   -3.6552294 
H     1.8483192   -2.7022952   -3.1458402 
H    -1.0148422   -3.9107281   -5.2477653 
H     0.7659786   -3.9468136   -5.0367793 
H    -0.0376067   -2.4555466   -5.6239539 
H    -2.4575694   -2.6160715   -3.6444486 
H    -1.5386329   -1.1207796   -3.9981573 
H    -1.7263179   -1.6780770   -2.3053361 
C     0.1850316    1.1404813   -1.1198410 
C    -0.7475889    0.3916592   -0.3536306 
C    -1.5686500    0.9375310    0.6502416 
C    -1.7839072    2.3322835    0.8478480 
N    -2.5119247    2.5235975    1.9629356 
C    -2.7945671    1.2995323    2.5710277 
C    -2.2413699    0.2781929    1.7668941 
C    -2.3773286   -1.0413837    2.3007389 
N    -1.9298152   -2.1721337    1.7238131 
C    -3.4974606   -0.1179698    4.1291276 
N    -3.4397542    1.1687503    3.7361387 
H     0.6765886    0.5956774   -1.9324978 
H    -0.0819792    2.1709129   -1.4016441 
H    -0.6968412   -0.7007270   -0.4335273 
H    -1.4763694    3.1777555    0.2325345 
H    -2.8124391    3.4303333    2.3246968 
H    -1.4394093   -2.2470860    0.8282445 
H    -1.9543447   -3.0154161    2.2958045 
H    -4.0029984   -0.3095945    5.0855823 
N    -3.0078731   -1.1925878    3.5014366 
H     2.9060002   -0.7697375   -0.8198251 
