68
Energy = -1946.361622356
N     1.4245122   -4.1937212   -1.5888825 
C     2.4807481   -4.2175248   -0.7500118 
C     2.9816476   -3.0699062   -0.1124102 
C     2.3727653   -1.8421854   -0.3752292 
C     1.2791397   -1.8028525   -1.2653786 
C     0.8381425   -3.0190118   -1.8380995 
C     0.5976679   -0.5392899   -1.5847030 
N    -0.3217365   -0.5200441   -2.5833023 
N    -1.0906856    0.5457130   -2.6736980 
C    -0.8614306    1.5706684   -1.8243654 
N     0.2855052    1.6850619   -1.1119664 
N     1.0067957    0.5959881   -0.9639369 
C    -1.8618900    2.6702431   -1.7535483 
N    -3.0891888    2.3811184   -2.2212255 
N    -1.4631299    3.8289536   -1.1985563 
C    -2.3909375    4.7978553   -1.1216443 
C    -3.7033564    4.6105508   -1.5752567 
C    -4.0070067    3.3555709   -2.1213655 
H    -5.0160738    3.1242121   -2.4842399 
H    -2.0758607    5.7474410   -0.6708824 
H    -4.4557935    5.3997640   -1.4962970 
C     3.1289706   -5.5558577   -0.4789339 
N     2.5627327   -6.5905625   -1.1495816 
O     4.0928172   -5.6604462    0.2957484 
C     2.9264046   -7.9726384   -0.8855297 
H     1.7287076   -6.3618357   -1.6977171 
C     2.0244212   -8.6069556    0.2010996 
H     2.8578684   -8.5583738   -1.8170617 
H     3.9753289   -7.9715291   -0.5465470 
N     1.9055405   -7.7510554    1.3735188 
H     2.4407564   -9.5886476    0.4867983 
H     1.0044853   -8.7620784   -0.1846091 
C     0.8388969   -6.8980784    1.5044811 
H     2.7706049   -7.4445264    1.8220574 
O    -0.2287568   -7.0186975    0.9048085 
O     1.1402125   -5.9261779    2.4028107 
C     0.1134843   -4.9695362    2.8777424 
C     0.9002548   -4.1141880    3.8771561 
C    -0.3943785   -4.1100184    1.7123080 
C    -1.0186958   -5.7376427    3.5733048 
H    -0.6082030   -6.3792976    4.3721190 
H    -1.5648453   -6.3652281    2.8523982 
H    -1.7244147   -5.0216133    4.0284801 
H     0.4433017   -3.5682638    1.2426292 
H    -1.1126273   -3.3677082    2.0988976 
H    -0.8912644   -4.7285524    0.9512083 
H     1.7472533   -3.6197610    3.3711697 
H     0.2438205   -3.3394048    4.3079697 
H     1.2949310   -4.7398576    4.6957871 
H     3.8323437   -3.1637592    0.5669906 
H     2.7322123   -0.9201961    0.0896866 
H    -0.0210174   -3.0235252   -2.5183706 
C    -1.9934146    1.5889133    1.2670907 
C    -3.1396670    2.5033454    1.3618719 
N    -2.8420783    3.7529306    1.9347654 
C    -1.6015672    4.2442034    2.3142728 
N    -0.5859630    3.2979815    2.1998385 
C    -0.7630797    2.0486453    1.6813701 
H     0.1458026    1.4508647    1.5899812 
H     0.3514386    3.6182862    2.4472949 
H    -3.6185649    4.4160514    1.9967358 
O    -1.4116522    5.3874535    2.7151115 
O    -4.2865865    2.2576535    0.9802874 
C    -2.2151944    0.2810675    0.6471459 
C    -1.3866034   -0.7878117    0.6761888 
H    -3.1670687    0.2061922    0.1063872 
H    -0.4481656   -0.7966660    1.2430664 
H    -1.6456457   -1.7079821    0.1434713 
