72
Energy = -1982.813476711
C     3.0110654   -3.1269919   -1.2585927 
C     2.3160769   -4.3337364   -1.4388918 
N     1.0446273   -4.3946566   -1.8866371 
C     0.4123148   -3.2501079   -2.1534112 
C     1.0160213   -1.9811884   -1.9877939 
C     2.3499578   -1.9302726   -1.5352942 
H     2.8435405   -0.9648735   -1.3923907 
H     4.0407870   -3.1518865   -0.8954122 
C     0.2428849   -0.7564976   -2.2175128 
N     0.8773218    0.4391409   -2.2500089 
N     0.1445159    1.5339030   -2.1921126 
C    -1.1924132    1.3701038   -2.0564181 
N    -1.8127448    0.2200625   -2.4146903 
N    -1.0806025   -0.8644679   -2.5172596 
C    -2.0248922    2.5365852   -1.6557546 
N    -1.3643024    3.6589537   -1.3175720 
N    -3.3568461    2.3499371   -1.6287460 
C    -4.0964556    3.4009838   -1.2398527 
C    -3.5188159    4.6260692   -0.8779196 
C    -2.1200529    4.7000211   -0.9318695 
H    -1.5898050    5.6192077   -0.6523548 
H    -5.1841011    3.2573189   -1.2130996 
H    -4.1276513    5.4770990   -0.5606668 
C     3.0121464   -5.6412334   -1.1481575 
N     2.2075439   -6.7268729   -1.2733761 
O     4.2103767   -5.6820745   -0.8311212 
C     2.7213066   -8.0827949   -1.2277876 
H     1.2605635   -6.5338704   -1.6120701 
C     3.0120212   -8.6297957   -2.6463110 
H     1.9981136   -8.7407774   -0.7167295 
H     3.6508648   -8.0547087   -0.6360827 
N     3.7986923   -7.6978583   -3.4414136 
H     2.0698713   -8.7989921   -3.1912020 
H     3.5434767   -9.5934917   -2.5625422 
C     3.1839079   -6.7899357   -4.2655854 
H     4.7173524   -7.4275853   -3.0875723 
O     2.0180812   -6.8753623   -4.6498050 
O     4.0631203   -5.8125715   -4.6037065 
C     3.7190464   -4.7744415   -5.6048838 
C     3.3969944   -5.4402243   -6.9498941 
C     5.0151533   -3.9604564   -5.6882599 
C     2.5628656   -3.9081820   -5.0871808 
H     1.6531578   -4.5098837   -4.9485514 
H     2.3574080   -3.1019242   -5.8121468 
H     2.8353202   -3.4462779   -4.1238137 
H     5.8505999   -4.5968704   -6.0267636 
H     5.2676446   -3.5434266   -4.6982950 
H     4.8920446   -3.1284673   -6.4019405 
H     4.2255055   -6.1032028   -7.2539788 
H     3.2709004   -4.6627977   -7.7230746 
H     2.4705688   -6.0303725   -6.8827454 
C    -1.1251514    0.5324652    0.7561378 
C    -0.3618764   -0.5870467    0.8106385 
C    -0.8297350   -1.9670324    0.7291399 
C    -2.0519967   -2.4013265    0.2085439 
N    -2.1094545   -3.7757423    0.2341618 
C    -0.9389151   -4.2781020    0.7534690 
C    -0.1074405   -3.1744206    1.0813377 
C     1.1617654   -3.5282545    1.6291949 
N     2.0972805   -2.6186879    2.0032960 
N     1.4865836   -4.8372876    1.7627929 
C     0.5882242   -5.7701796    1.3952396 
N    -0.6406764   -5.5839958    0.8964497 
H    -0.6659643    1.5246310    0.8058964 
H    -2.2181972    0.4923463    0.6836431 
H     0.7235136   -0.4538708    0.9116885 
H    -2.8750053   -1.8222296   -0.2084669 
H    -2.8851981   -4.3412188   -0.1079794 
H     1.8545504   -1.6430620    2.1442367 
H     2.9380365   -2.9611076    2.4646773 
H     0.9082874   -6.8129374    1.5249029 
H    -0.6219401   -3.3195251   -2.5064176 
