72
Energy = -1982.800781792
C     1.9526472   -1.5169527    0.0905592 
C     0.7861428   -2.2024028    0.4672634 
N    -0.4491491   -1.6728434    0.3465353 
C    -0.5592646   -0.4269744   -0.1174709 
C     0.5549123    0.3671404   -0.4857080 
C     1.8371215   -0.2100980   -0.3859834 
H     2.7210829    0.3711638   -0.6640405 
H     2.9211712   -2.0106080    0.2009157 
C     0.3549420    1.7650084   -0.8689554 
N     1.3884297    2.5035857   -1.3878872 
N     1.2107279    3.7797868   -1.5154165 
C     0.0152717    4.2736515   -0.9589014 
N    -1.1173128    3.4823015   -1.1972684 
N    -0.9302638    2.2088191   -1.0894974 
C    -0.1799718    5.7621856   -1.0888547 
N     0.9389691    6.5063085   -1.0636475 
N    -1.4409074    6.2166796   -1.1632263 
C    -1.5877961    7.5501536   -1.2581943 
C    -0.4927684    8.4232420   -1.2735271 
C     0.7745619    7.8363516   -1.1622036 
H     1.6844919    8.4498450   -1.1428641 
H    -2.6160024    7.9296886   -1.3189466 
H    -0.6207679    9.5064210   -1.3520133 
C     0.8855650   -3.5975919    1.0276947 
N    -0.3072827   -4.1107824    1.4282944 
O     1.9708833   -4.1944154    1.1081159 
C    -0.4664185   -5.5065666    1.7903485 
H    -1.1218661   -3.5264372    1.2174507 
C    -0.9455543   -6.3566476    0.5883750 
H    -1.1860338   -5.6010951    2.6214197 
H     0.5179891   -5.8624156    2.1358493 
N    -0.1543253   -6.1083545   -0.6082378 
H    -1.9892014   -6.1095501    0.3371456 
H    -0.8964525   -7.4263517    0.8560984 
C    -0.5542430   -5.1724865   -1.5282119 
H     0.8497507   -6.2869563   -0.5614994 
O    -1.6953187   -4.7191826   -1.6091599 
O     0.4875049   -4.8527657   -2.3373102 
C     0.3063572   -3.9808604   -3.5228479 
C    -0.7052650   -4.6205856   -4.4839682 
C     1.7122808   -3.9643462   -4.1333807 
C    -0.1130281   -2.5722289   -3.0814720 
H    -1.0846918   -2.5953334   -2.5675144 
H    -0.1869173   -1.9187675   -3.9678384 
H     0.6405477   -2.1466214   -2.3985978 
H     2.0228532   -4.9841725   -4.4182897 
H     2.4389134   -3.5638393   -3.4058790 
H     1.7239261   -3.3262410   -5.0330942 
H    -0.3999603   -5.6536164   -4.7253077 
H    -0.7389000   -4.0391214   -5.4214550 
H    -1.7116584   -4.6379702   -4.0388993 
C     0.2813628    4.1782569    1.0039272 
C     0.4739428    2.8635812    1.4763599 
C    -0.5140845    2.0361946    2.1029387 
C    -1.9060757    2.2522620    2.1004124 
N    -2.5370314    1.1820909    2.6595679 
C    -1.6065015    0.2328213    3.0474847 
C    -0.3233822    0.7405392    2.7347881 
C     0.7616713   -0.1105782    3.1029716 
N     2.0641427    0.2227461    2.9520798 
N     0.4920661   -1.3361032    3.6169244 
C    -0.7886014   -1.6932575    3.8097706 
N    -1.8934964   -0.9660008    3.5806057 
H     1.1696752    4.8164712    0.9586731 
H    -0.6430134    4.6962345    1.2835259 
H     1.5016911    2.4867543    1.4635647 
H    -2.4791093    3.0891275    1.7024841 
H    -3.5472287    1.0803459    2.7601585 
H     2.3557846    1.1739362    2.7540404 
H     2.7729263   -0.4299438    3.2805815 
H    -0.9455368   -2.7028998    4.2123563 
H    -1.5694572   -0.0099705   -0.1980875 
