68
Energy = -1946.348029388
N    -0.0837174   -1.0265769   -2.7793136 
C     1.0737811   -1.6788307   -2.5489163 
C     2.2738552   -1.0190909   -2.2318081 
C     2.2356546    0.3573804   -2.0038736 
C     1.0044730    1.0312758   -2.1252654 
C    -0.1131621    0.2949286   -2.5883694 
C     0.8051791    2.3997281   -1.6441714 
N    -0.4042719    3.0079854   -1.9056707 
N    -0.6739920    4.1011950   -1.2777889 
C     0.2715596    4.4709706   -0.3015565 
N     1.6119312    4.3063882   -0.6936486 
N     1.8716732    3.2066668   -1.3216991 
C    -0.0527886    5.7482497    0.4326066 
N    -1.3577840    5.9740819    0.6592481 
N     0.9740237    6.5143792    0.8301422 
C     0.6524793    7.6390344    1.4949470 
C    -0.6753200    7.9940239    1.7635818 
C    -1.6621589    7.1031927    1.3211444 
H    -2.7262892    7.2948484    1.5092794 
H     1.4863359    8.2719471    1.8247448 
H    -0.9281689    8.9108697    2.3032318 
C     1.0050272   -3.1823763   -2.4670561 
N    -0.2403829   -3.6940507   -2.6392871 
O     2.0025896   -3.8645802   -2.1723034 
C    -0.5538630   -5.0790566   -2.3126950 
H    -0.9885330   -3.0125562   -2.7980328 
C    -1.0367864   -5.2455170   -0.8627702 
H    -1.3322445   -5.4504728   -2.9977497 
H     0.3646755   -5.6663108   -2.4759447 
N    -0.0864050   -4.6058627    0.0551808 
H    -1.1478079   -6.3243889   -0.6427401 
H    -2.0167290   -4.7610036   -0.7212395 
C    -0.3267110   -4.5982770    1.4144893 
H     0.8988883   -4.5890804   -0.2277805 
O    -1.4015872   -4.9045855    1.9203123 
O     0.7726521   -4.1452083    2.0557234 
C     0.7515051   -3.8041024    3.5008156 
C     2.1604358   -3.2413292    3.7166299 
C    -0.3108071   -2.7276299    3.7624891 
C     0.5185301   -5.0776169    4.3231439 
H     1.2666040   -5.8441494    4.0567647 
H    -0.4894822   -5.4808391    4.1416793 
H     0.6237412   -4.8455951    5.3970162 
H     2.3200887   -2.3737078    3.0545424 
H     2.2818392   -2.9217083    4.7652880 
H     2.9214324   -4.0074866    3.4896072 
H     3.1876378   -1.6019520   -2.0925930 
H     3.1266167    0.8996737   -1.6741948 
H    -1.0662178    0.8051665   -2.7666447 
C    -0.6110102    0.7574641    0.4898190 
C    -0.0335859   -0.6042142    0.4949773 
N    -0.9296982   -1.6220646    0.1388650 
C    -2.2472449   -1.4844515   -0.2566174 
N    -2.7200252   -0.1682503   -0.1676404 
C    -1.9510303    0.8963654    0.1772601 
H    -3.6998039   -0.0277715   -0.4225414 
H    -0.5390999   -2.5787584    0.0568453 
O    -2.9482559   -2.4101192   -0.6466727 
O     1.1325677   -0.8749232    0.7787418 
C     0.2905455    1.8515464    0.7647248 
C    -0.0382708    3.1756483    1.1245024 
H     1.3321763    1.5351461    0.8919809 
H    -1.0880094    3.4316514    1.3093068 
H     0.6731052    3.6632973    1.7992796 
H    -1.3206276   -3.1059015    3.5426938 
H    -0.1095992   -1.8399697    3.1401850 
H    -0.2671470   -2.4255069    4.8228532 
H    -2.4570884    1.8651995    0.1557896 
