72
Energy = -1982.809196613
C     2.3530516   -3.4892234   -0.8087044 
C     1.5795114   -4.5796237   -1.2420013 
N     0.4064941   -4.4381058   -1.8931227 
C    -0.0273205   -3.2031245   -2.1583463 
C     0.6835956   -2.0395327   -1.7802121 
C     1.8976767   -2.1980932   -1.0799977 
H     2.4677424   -1.3187516   -0.7680288 
H     3.2924864   -3.6734363   -0.2818227 
C     0.1498502   -0.7059664   -2.0934281 
N     0.8791705    0.3865981   -1.7635692 
N     0.3012276    1.5668560   -1.8650690 
C    -0.9831745    1.5994835   -2.2867633 
N    -1.5692067    0.5554385   -2.9232913 
N    -0.9879844   -0.6177782   -2.8343206 
C    -1.7397772    2.8743267   -2.1724983 
N    -1.1887663    3.8318104   -1.4022985 
N    -2.9114312    2.9450970   -2.8286704 
C    -3.5986229    4.0892996   -2.6935987 
C    -3.1217739    5.1579385   -1.9218564 
C    -1.8863711    4.9722619   -1.2858155 
H    -1.4488738    5.7574218   -0.6563096 
H    -4.5623866    4.1513356   -3.2140333 
H    -3.6877220    6.0875075   -1.8159560 
C     2.0873961   -5.9856101   -1.0156433 
N     1.2475239   -6.9519767   -1.4663144 
O     3.1813649   -6.1952829   -0.4697213 
C     1.6497928   -8.3439163   -1.5674479 
H     0.4234167   -6.6138424   -1.9723259 
C     2.1024942   -8.7010315   -3.0034926 
H     0.8146235   -9.0010614   -1.2702662 
H     2.4809675   -8.4891362   -0.8587172 
N     3.0725342   -7.7538715   -3.5307692 
H     1.2393686   -8.6889233   -3.6877888 
H     2.5329774   -9.7171530   -3.0053155 
C     2.6692647   -6.6739025   -4.2719229 
H     3.9778149   -7.6754535   -3.0664986 
O     1.5514554   -6.5529655   -4.7726750 
O     3.6898486   -5.7856571   -4.3814360 
C     3.5823138   -4.5901891   -5.2523953 
C     3.3395790   -5.0272326   -6.7036975 
C     4.9642941   -3.9460309   -5.0944724 
C     2.4820045   -3.6576607   -4.7285447 
H     1.4970603   -4.1437098   -4.7800770 
H     2.4628633   -2.7357810   -5.3348204 
H     2.6889082   -3.3788526   -3.6819999 
H     5.7543968   -4.6386455   -5.4313543 
H     5.1479170   -3.6888815   -4.0371631 
H     5.0204252   -3.0243990   -5.6978507 
H     4.1189931   -5.7413057   -7.0214520 
H     3.3853398   -4.1445660   -7.3647000 
H     2.3522464   -5.5016168   -6.8097702 
C     0.1134843    0.8743279    1.9116261 
C    -0.9508890    1.2031822    1.1475545 
C    -1.8809522    0.2688669    0.5118702 
C    -1.6711015   -1.0974183    0.2898682 
N    -2.7440429   -1.6361792   -0.3832784 
C    -3.6776802   -0.6543960   -0.6233619 
C    -3.1857894    0.5511665   -0.0563810 
C    -4.0885999    1.6534141   -0.1312759 
N    -3.8300901    2.8673420    0.4193574 
N    -5.2609280    1.5105909   -0.7928282 
C    -5.5561865    0.3139912   -1.3329195 
N    -4.8429947   -0.8195531   -1.2762542 
H     0.7849070    1.6471029    2.3005264 
H     0.3500568   -0.1657920    2.1679466 
H    -1.1191816    2.2662155    0.9293456 
H    -0.8259780   -1.7236955    0.5711663 
H    -2.8373501   -2.6099987   -0.6681710 
H    -3.0976915    2.9778050    1.1142913 
H    -4.5820607    3.5538730    0.4287966 
H    -6.5123128    0.2594923   -1.8721890 
H    -0.9766891   -3.1111219   -2.6978836 
