72
Energy = -1982.810872789
C     2.7844386   -3.3373557   -0.8114621 
C     2.1070483   -4.5388940   -1.0796900 
N     0.8561185   -4.5835890   -1.5824667 
C     0.2404701   -3.4298903   -1.8564873 
C     0.8421315   -2.1676943   -1.6431299 
C     2.1422516   -2.1320545   -1.0977848 
H     2.6330158   -1.1719465   -0.9166799 
H     3.7961749   -3.3720470   -0.4000638 
C     0.1150952   -0.9312363   -1.9674064 
N     0.7217785    0.2606577   -1.7355931 
N     0.0050386    1.3576531   -1.8366814 
C    -1.3167917    1.2028011   -2.0970491 
N    -1.8184171    0.0747128   -2.6414745 
N    -1.0716033   -1.0130048   -2.6192514 
C    -2.2282997    2.3576873   -1.8814395 
N    -1.6613889    3.5626769   -1.6963915 
N    -3.5420272    2.0707946   -1.8529992 
C    -4.3690292    3.0987866   -1.6054469 
C    -3.8928739    4.3991659   -1.3898075 
C    -2.5038772    4.5789225   -1.4497317 
H    -2.0536354    5.5657300   -1.2868416 
H    -5.4414881    2.8731257   -1.5659158 
H    -4.5705705    5.2294723   -1.1764075 
C     2.8102965   -5.8548520   -0.8362686 
N     2.0549659   -6.9446037   -1.1266882 
O     3.9760643   -5.8939600   -0.4138877 
C     2.6197995   -8.2813406   -1.1903931 
H     1.1427158   -6.7463208   -1.5481927 
C     3.0069865   -8.6661561   -2.6387178 
H     1.8971254   -9.0143590   -0.7935202 
H     3.5135040   -8.2832207   -0.5455888 
N     3.8047007   -7.6368864   -3.2876259 
H     2.1021584   -8.8024989   -3.2516862 
H     3.5639882   -9.6188287   -2.6236909 
C     3.2122905   -6.6712976   -4.0593808 
H     4.7106749   -7.3999217   -2.8819500 
O     2.0649427   -6.7394617   -4.4993677 
O     4.0872579   -5.6560356   -4.2745468 
C     3.7703269   -4.5498086   -5.2096972 
C     3.5453224   -5.1158981   -6.6184593 
C     5.0447714   -3.6997998   -5.1534838 
C     2.5624180   -3.7548279   -4.6962284 
H     1.6545935   -4.3749851   -4.6922569 
H     2.4000211   -2.8770563   -5.3449397 
H     2.7545704   -3.3963330   -3.6717540 
H     5.9179426   -4.2908261   -5.4786621 
H     5.2224965   -3.3444678   -4.1239407 
H     4.9424125   -2.8245071   -5.8167808 
H     4.4148140   -5.7207935   -6.9291305 
H     3.4261447   -4.2837323   -7.3335328 
H     2.6413721   -5.7430451   -6.6484401 
C    -1.0698373   -0.7931627    0.8042940 
C    -1.8963563    0.2803869    0.7847225 
C    -1.5515105    1.6491834    1.1611757 
C    -0.2698987    2.2062351    1.1844382 
N    -0.3442825    3.5417264    1.5012442 
C    -1.6589123    3.9011820    1.6793055 
C    -2.4518561    2.7388780    1.4829589 
C    -3.8533898    2.9377383    1.6595569 
N    -4.7728972    1.9496921    1.5164638 
N    -4.3197263    4.1780821    1.9460890 
C    -3.4379491    5.1878612    2.0750036 
N    -2.1029648    5.1399992    1.9704621 
H    -1.4179858   -1.7744010    0.4664690 
H    -0.0398309   -0.7310429    1.1751639 
H    -2.9212508    0.1299158    0.4190850 
H     0.6910751    1.7450370    0.9617400 
H     0.4465447    4.1826347    1.5480097 
H    -4.4944034    0.9731769    1.5074265 
H    -5.7396104    2.1557599    1.7621197 
H    -3.8732385    6.1719218    2.2987596 
H    -0.7745157   -3.4895440   -2.2653145 
