72
Energy = -1982.799347011
C     0.9979115   -1.6314613    0.5234144 
C    -0.2477686   -2.2764412    0.5928593 
N    -1.3836055   -1.7373205    0.1039210 
C    -1.3296087   -0.5101240   -0.4223034 
C    -0.1379372    0.2478224   -0.4912477 
C     1.0520890   -0.3490552   -0.0195689 
H     1.9921601    0.2071590   -0.0679218 
H     1.8826881   -2.1326929    0.9221772 
C    -0.1428610    1.6370984   -0.9518431 
N     1.0651146    2.2832442   -1.0901054 
N     1.0470652    3.5623536   -1.2691084 
C    -0.2197453    4.1586862   -1.1801303 
N    -1.2567539    3.4385382   -1.8025329 
N    -1.2303765    2.1588606   -1.6059591 
C    -0.2581639    5.6503247   -1.3921568 
N     0.9063183    6.3125084   -1.3020409 
N    -1.4721262    6.1898123   -1.5936317 
C    -1.5125652    7.5224187   -1.7635518 
C    -0.3572044    8.3137146   -1.7225962 
C     0.8479317    7.6450657   -1.4726703 
H     1.7960003    8.1935630   -1.4005195 
H    -2.5011572    7.9696913   -1.9291147 
H    -0.3965060    9.3977509   -1.8609153 
C    -0.3387414   -3.6386345    1.2300087 
N    -1.5915988   -4.1647509    1.2332069 
O     0.6614940   -4.2034817    1.7003800 
C    -1.8400348   -5.5513752    1.5834935 
H    -2.2979277   -3.6147988    0.7360941 
C    -1.8019664   -6.4711479    0.3375822 
H    -2.8185362   -5.6434558    2.0840519 
H    -1.0520718   -5.8498377    2.2942488 
N    -0.6286317   -6.2186083   -0.4880832 
H    -2.6829279   -6.2936873   -0.2994296 
H    -1.8158482   -7.5257621    0.6636515 
C    -0.7021110   -5.3617005   -1.5578750 
H     0.2856659   -6.2803304   -0.0368856 
O    -1.7475202   -5.0366999   -2.1197681 
O     0.5455558   -4.9563034   -1.9044052 
C     0.7913577   -4.1765397   -3.1413176 
C     0.3417468   -4.9959334   -4.3587197 
C     2.3144464   -4.0052979   -3.1195861 
C     0.0899166   -2.8136821   -3.0611934 
H    -1.0006718   -2.9362252   -2.9948617 
H     0.3348182   -2.2258337   -3.9626660 
H     0.4409557   -2.2554317   -2.1784648 
H     2.8150545   -4.9884132   -3.1418216 
H     2.6238028   -3.4719859   -2.2043628 
H     2.6403728   -3.4216044   -3.9969844 
H     0.8248212   -5.9884606   -4.3492080 
H     0.6377683   -4.4726772   -5.2842386 
H    -0.7511711   -5.1278853   -4.3588153 
C    -0.6443500    4.1255903    0.7528611 
C    -0.6925259    2.8230256    1.2919966 
C     0.3290408    2.1837289    2.0667992 
C     1.6695849    2.5984377    2.1877806 
N     2.3810377    1.6557557    2.8674363 
C     1.5563046    0.5995268    3.2160015 
C     0.2542079    0.9047260    2.7547891 
C    -0.7340324   -0.0776659    3.0627690 
N    -2.0478963    0.0590496    2.7756501 
N    -0.3507513   -1.2320506    3.6633695 
C     0.9413056   -1.3977174    3.9901358 
N     1.9525977   -0.5281501    3.8297856 
H    -1.6082469    4.6204356    0.5959300 
H     0.1662587    4.7888503    1.0754364 
H    -1.6483387    2.2965119    1.2036602 
H     2.1592983    3.4908046    1.7992379 
H     3.3800702    1.7037314    3.0689971 
H    -2.4477735    0.9371717    2.4638748 
H    -2.6843354   -0.6952738    3.0237314 
H     1.1967823   -2.3636066    4.4456106 
H    -2.2681174   -0.0856167   -0.7979566 
